<configuration>
	<input>
		<net-file value="london-seg4.200.200.net.xml" />
		<route-files value="london-seg4.200.200.rou.xml" />
	</input>
	<time>
		<begin value="0" />
		<end value="3000000" />
	</time>
	<settings>
		<grid-dimension rows="31" cols="40" />
	</settings>
</configuration>