<nodes>
	<node id="cell0_0" x="307.000000" y="6347.000000" type="priority"/>
	<node id="cell0_1" x="507.000000" y="6347.000000" type="priority"/>
	<node id="cell0_2" x="707.000000" y="6347.000000" type="priority"/>
	<node id="cell0_3" x="907.000000" y="6347.000000" type="priority"/>
	<node id="cell0_4" x="1107.000000" y="6347.000000" type="priority"/>
	<node id="cell0_5" x="1307.000000" y="6347.000000" type="priority"/>
	<node id="cell0_6" x="1507.000000" y="6347.000000" type="priority"/>
	<node id="cell0_7" x="1707.000000" y="6347.000000" type="priority"/>
	<node id="cell0_8" x="1907.000000" y="6347.000000" type="priority"/>
	<node id="cell0_9" x="2107.000000" y="6347.000000" type="priority"/>
	<node id="cell0_10" x="2307.000000" y="6347.000000" type="priority"/>
	<node id="cell0_11" x="2507.000000" y="6347.000000" type="priority"/>
	<node id="cell0_12" x="2707.000000" y="6347.000000" type="priority"/>
	<node id="cell0_13" x="2907.000000" y="6347.000000" type="priority"/>
	<node id="cell0_14" x="3107.000000" y="6347.000000" type="priority"/>
	<node id="cell0_15" x="3307.000000" y="6347.000000" type="priority"/>
	<node id="cell0_16" x="3507.000000" y="6347.000000" type="priority"/>
	<node id="cell0_17" x="3707.000000" y="6347.000000" type="priority"/>
	<node id="cell0_18" x="3907.000000" y="6347.000000" type="priority"/>
	<node id="cell0_19" x="4107.000000" y="6347.000000" type="priority"/>
	<node id="cell0_20" x="4307.000000" y="6347.000000" type="priority"/>
	<node id="cell0_21" x="4507.000000" y="6347.000000" type="priority"/>
	<node id="cell0_22" x="4707.000000" y="6347.000000" type="priority"/>
	<node id="cell0_23" x="4907.000000" y="6347.000000" type="priority"/>
	<node id="cell0_24" x="5107.000000" y="6347.000000" type="priority"/>
	<node id="cell0_25" x="5307.000000" y="6347.000000" type="priority"/>
	<node id="cell0_26" x="5507.000000" y="6347.000000" type="priority"/>
	<node id="cell0_27" x="5707.000000" y="6347.000000" type="priority"/>
	<node id="cell0_28" x="5907.000000" y="6347.000000" type="priority"/>
	<node id="cell0_29" x="6107.000000" y="6347.000000" type="priority"/>
	<node id="cell0_30" x="6307.000000" y="6347.000000" type="priority"/>
	<node id="cell0_31" x="6507.000000" y="6347.000000" type="priority"/>
	<node id="cell0_32" x="6707.000000" y="6347.000000" type="priority"/>
	<node id="cell0_33" x="6907.000000" y="6347.000000" type="priority"/>
	<node id="cell0_34" x="7107.000000" y="6347.000000" type="priority"/>
	<node id="cell0_35" x="7307.000000" y="6347.000000" type="priority"/>
	<node id="cell0_36" x="7507.000000" y="6347.000000" type="priority"/>
	<node id="cell0_37" x="7707.000000" y="6347.000000" type="priority"/>
	<node id="cell0_38" x="7907.000000" y="6347.000000" type="priority"/>
	<node id="cell0_39" x="8107.000000" y="6347.000000" type="priority"/>
	<node id="cell1_0" x="307.000000" y="6147.000000" type="priority"/>
	<node id="cell1_1" x="507.000000" y="6147.000000" type="priority"/>
	<node id="cell1_2" x="707.000000" y="6147.000000" type="priority"/>
	<node id="cell1_3" x="907.000000" y="6147.000000" type="priority"/>
	<node id="cell1_4" x="1107.000000" y="6147.000000" type="priority"/>
	<node id="cell1_5" x="1307.000000" y="6147.000000" type="priority"/>
	<node id="cell1_6" x="1507.000000" y="6147.000000" type="priority"/>
	<node id="cell1_7" x="1707.000000" y="6147.000000" type="priority"/>
	<node id="cell1_8" x="1907.000000" y="6147.000000" type="priority"/>
	<node id="cell1_9" x="2107.000000" y="6147.000000" type="priority"/>
	<node id="cell1_10" x="2307.000000" y="6147.000000" type="priority"/>
	<node id="cell1_11" x="2507.000000" y="6147.000000" type="priority"/>
	<node id="cell1_12" x="2707.000000" y="6147.000000" type="priority"/>
	<node id="cell1_13" x="2907.000000" y="6147.000000" type="priority"/>
	<node id="cell1_14" x="3107.000000" y="6147.000000" type="priority"/>
	<node id="cell1_15" x="3307.000000" y="6147.000000" type="priority"/>
	<node id="cell1_16" x="3507.000000" y="6147.000000" type="priority"/>
	<node id="cell1_17" x="3707.000000" y="6147.000000" type="priority"/>
	<node id="cell1_18" x="3907.000000" y="6147.000000" type="priority"/>
	<node id="cell1_19" x="4107.000000" y="6147.000000" type="priority"/>
	<node id="cell1_20" x="4307.000000" y="6147.000000" type="priority"/>
	<node id="cell1_21" x="4507.000000" y="6147.000000" type="priority"/>
	<node id="cell1_22" x="4707.000000" y="6147.000000" type="priority"/>
	<node id="cell1_23" x="4907.000000" y="6147.000000" type="priority"/>
	<node id="cell1_24" x="5107.000000" y="6147.000000" type="priority"/>
	<node id="cell1_25" x="5307.000000" y="6147.000000" type="priority"/>
	<node id="cell1_26" x="5507.000000" y="6147.000000" type="priority"/>
	<node id="cell1_27" x="5707.000000" y="6147.000000" type="priority"/>
	<node id="cell1_28" x="5907.000000" y="6147.000000" type="priority"/>
	<node id="cell1_29" x="6107.000000" y="6147.000000" type="priority"/>
	<node id="cell1_30" x="6307.000000" y="6147.000000" type="priority"/>
	<node id="cell1_31" x="6507.000000" y="6147.000000" type="priority"/>
	<node id="cell1_32" x="6707.000000" y="6147.000000" type="priority"/>
	<node id="cell1_33" x="6907.000000" y="6147.000000" type="priority"/>
	<node id="cell1_34" x="7107.000000" y="6147.000000" type="priority"/>
	<node id="cell1_35" x="7307.000000" y="6147.000000" type="priority"/>
	<node id="cell1_36" x="7507.000000" y="6147.000000" type="priority"/>
	<node id="cell1_37" x="7707.000000" y="6147.000000" type="priority"/>
	<node id="cell1_38" x="7907.000000" y="6147.000000" type="priority"/>
	<node id="cell1_39" x="8107.000000" y="6147.000000" type="priority"/>
	<node id="cell2_0" x="307.000000" y="5947.000000" type="priority"/>
	<node id="cell2_1" x="507.000000" y="5947.000000" type="priority"/>
	<node id="cell2_2" x="707.000000" y="5947.000000" type="priority"/>
	<node id="cell2_3" x="907.000000" y="5947.000000" type="priority"/>
	<node id="cell2_4" x="1107.000000" y="5947.000000" type="priority"/>
	<node id="cell2_5" x="1307.000000" y="5947.000000" type="priority"/>
	<node id="cell2_6" x="1507.000000" y="5947.000000" type="priority"/>
	<node id="cell2_7" x="1707.000000" y="5947.000000" type="priority"/>
	<node id="cell2_8" x="1907.000000" y="5947.000000" type="priority"/>
	<node id="cell2_9" x="2107.000000" y="5947.000000" type="priority"/>
	<node id="cell2_10" x="2307.000000" y="5947.000000" type="priority"/>
	<node id="cell2_11" x="2507.000000" y="5947.000000" type="priority"/>
	<node id="cell2_12" x="2707.000000" y="5947.000000" type="priority"/>
	<node id="cell2_13" x="2907.000000" y="5947.000000" type="priority"/>
	<node id="cell2_14" x="3107.000000" y="5947.000000" type="priority"/>
	<node id="cell2_15" x="3307.000000" y="5947.000000" type="priority"/>
	<node id="cell2_16" x="3507.000000" y="5947.000000" type="priority"/>
	<node id="cell2_17" x="3707.000000" y="5947.000000" type="priority"/>
	<node id="cell2_18" x="3907.000000" y="5947.000000" type="priority"/>
	<node id="cell2_19" x="4107.000000" y="5947.000000" type="priority"/>
	<node id="cell2_20" x="4307.000000" y="5947.000000" type="priority"/>
	<node id="cell2_21" x="4507.000000" y="5947.000000" type="priority"/>
	<node id="cell2_22" x="4707.000000" y="5947.000000" type="priority"/>
	<node id="cell2_23" x="4907.000000" y="5947.000000" type="priority"/>
	<node id="cell2_24" x="5107.000000" y="5947.000000" type="priority"/>
	<node id="cell2_25" x="5307.000000" y="5947.000000" type="priority"/>
	<node id="cell2_26" x="5507.000000" y="5947.000000" type="priority"/>
	<node id="cell2_27" x="5707.000000" y="5947.000000" type="priority"/>
	<node id="cell2_28" x="5907.000000" y="5947.000000" type="priority"/>
	<node id="cell2_29" x="6107.000000" y="5947.000000" type="priority"/>
	<node id="cell2_30" x="6307.000000" y="5947.000000" type="priority"/>
	<node id="cell2_31" x="6507.000000" y="5947.000000" type="priority"/>
	<node id="cell2_32" x="6707.000000" y="5947.000000" type="priority"/>
	<node id="cell2_33" x="6907.000000" y="5947.000000" type="priority"/>
	<node id="cell2_34" x="7107.000000" y="5947.000000" type="priority"/>
	<node id="cell2_35" x="7307.000000" y="5947.000000" type="priority"/>
	<node id="cell2_36" x="7507.000000" y="5947.000000" type="priority"/>
	<node id="cell2_37" x="7707.000000" y="5947.000000" type="priority"/>
	<node id="cell2_38" x="7907.000000" y="5947.000000" type="priority"/>
	<node id="cell2_39" x="8107.000000" y="5947.000000" type="priority"/>
	<node id="cell3_0" x="307.000000" y="5747.000000" type="priority"/>
	<node id="cell3_1" x="507.000000" y="5747.000000" type="priority"/>
	<node id="cell3_2" x="707.000000" y="5747.000000" type="priority"/>
	<node id="cell3_3" x="907.000000" y="5747.000000" type="priority"/>
	<node id="cell3_4" x="1107.000000" y="5747.000000" type="priority"/>
	<node id="cell3_5" x="1307.000000" y="5747.000000" type="priority"/>
	<node id="cell3_6" x="1507.000000" y="5747.000000" type="priority"/>
	<node id="cell3_7" x="1707.000000" y="5747.000000" type="priority"/>
	<node id="cell3_8" x="1907.000000" y="5747.000000" type="priority"/>
	<node id="cell3_9" x="2107.000000" y="5747.000000" type="priority"/>
	<node id="cell3_10" x="2307.000000" y="5747.000000" type="priority"/>
	<node id="cell3_11" x="2507.000000" y="5747.000000" type="priority"/>
	<node id="cell3_12" x="2707.000000" y="5747.000000" type="priority"/>
	<node id="cell3_13" x="2907.000000" y="5747.000000" type="priority"/>
	<node id="cell3_14" x="3107.000000" y="5747.000000" type="priority"/>
	<node id="cell3_15" x="3307.000000" y="5747.000000" type="priority"/>
	<node id="cell3_16" x="3507.000000" y="5747.000000" type="priority"/>
	<node id="cell3_17" x="3707.000000" y="5747.000000" type="priority"/>
	<node id="cell3_18" x="3907.000000" y="5747.000000" type="priority"/>
	<node id="cell3_19" x="4107.000000" y="5747.000000" type="priority"/>
	<node id="cell3_20" x="4307.000000" y="5747.000000" type="priority"/>
	<node id="cell3_21" x="4507.000000" y="5747.000000" type="priority"/>
	<node id="cell3_22" x="4707.000000" y="5747.000000" type="priority"/>
	<node id="cell3_23" x="4907.000000" y="5747.000000" type="priority"/>
	<node id="cell3_24" x="5107.000000" y="5747.000000" type="priority"/>
	<node id="cell3_25" x="5307.000000" y="5747.000000" type="priority"/>
	<node id="cell3_26" x="5507.000000" y="5747.000000" type="priority"/>
	<node id="cell3_27" x="5707.000000" y="5747.000000" type="priority"/>
	<node id="cell3_28" x="5907.000000" y="5747.000000" type="priority"/>
	<node id="cell3_29" x="6107.000000" y="5747.000000" type="priority"/>
	<node id="cell3_30" x="6307.000000" y="5747.000000" type="priority"/>
	<node id="cell3_31" x="6507.000000" y="5747.000000" type="priority"/>
	<node id="cell3_32" x="6707.000000" y="5747.000000" type="priority"/>
	<node id="cell3_33" x="6907.000000" y="5747.000000" type="priority"/>
	<node id="cell3_34" x="7107.000000" y="5747.000000" type="priority"/>
	<node id="cell3_35" x="7307.000000" y="5747.000000" type="priority"/>
	<node id="cell3_36" x="7507.000000" y="5747.000000" type="priority"/>
	<node id="cell3_37" x="7707.000000" y="5747.000000" type="priority"/>
	<node id="cell3_38" x="7907.000000" y="5747.000000" type="priority"/>
	<node id="cell3_39" x="8107.000000" y="5747.000000" type="priority"/>
	<node id="cell4_0" x="307.000000" y="5547.000000" type="priority"/>
	<node id="cell4_1" x="507.000000" y="5547.000000" type="priority"/>
	<node id="cell4_2" x="707.000000" y="5547.000000" type="priority"/>
	<node id="cell4_3" x="907.000000" y="5547.000000" type="priority"/>
	<node id="cell4_4" x="1107.000000" y="5547.000000" type="priority"/>
	<node id="cell4_5" x="1307.000000" y="5547.000000" type="priority"/>
	<node id="cell4_6" x="1507.000000" y="5547.000000" type="priority"/>
	<node id="cell4_7" x="1707.000000" y="5547.000000" type="priority"/>
	<node id="cell4_8" x="1907.000000" y="5547.000000" type="priority"/>
	<node id="cell4_9" x="2107.000000" y="5547.000000" type="priority"/>
	<node id="cell4_10" x="2307.000000" y="5547.000000" type="priority"/>
	<node id="cell4_11" x="2507.000000" y="5547.000000" type="priority"/>
	<node id="cell4_12" x="2707.000000" y="5547.000000" type="priority"/>
	<node id="cell4_13" x="2907.000000" y="5547.000000" type="priority"/>
	<node id="cell4_14" x="3107.000000" y="5547.000000" type="priority"/>
	<node id="cell4_15" x="3307.000000" y="5547.000000" type="priority"/>
	<node id="cell4_16" x="3507.000000" y="5547.000000" type="priority"/>
	<node id="cell4_17" x="3707.000000" y="5547.000000" type="priority"/>
	<node id="cell4_18" x="3907.000000" y="5547.000000" type="priority"/>
	<node id="cell4_19" x="4107.000000" y="5547.000000" type="priority"/>
	<node id="cell4_20" x="4307.000000" y="5547.000000" type="priority"/>
	<node id="cell4_21" x="4507.000000" y="5547.000000" type="priority"/>
	<node id="cell4_22" x="4707.000000" y="5547.000000" type="priority"/>
	<node id="cell4_23" x="4907.000000" y="5547.000000" type="priority"/>
	<node id="cell4_24" x="5107.000000" y="5547.000000" type="priority"/>
	<node id="cell4_25" x="5307.000000" y="5547.000000" type="priority"/>
	<node id="cell4_26" x="5507.000000" y="5547.000000" type="priority"/>
	<node id="cell4_27" x="5707.000000" y="5547.000000" type="priority"/>
	<node id="cell4_28" x="5907.000000" y="5547.000000" type="priority"/>
	<node id="cell4_29" x="6107.000000" y="5547.000000" type="priority"/>
	<node id="cell4_30" x="6307.000000" y="5547.000000" type="priority"/>
	<node id="cell4_31" x="6507.000000" y="5547.000000" type="priority"/>
	<node id="cell4_32" x="6707.000000" y="5547.000000" type="priority"/>
	<node id="cell4_33" x="6907.000000" y="5547.000000" type="priority"/>
	<node id="cell4_34" x="7107.000000" y="5547.000000" type="priority"/>
	<node id="cell4_35" x="7307.000000" y="5547.000000" type="priority"/>
	<node id="cell4_36" x="7507.000000" y="5547.000000" type="priority"/>
	<node id="cell4_37" x="7707.000000" y="5547.000000" type="priority"/>
	<node id="cell4_38" x="7907.000000" y="5547.000000" type="priority"/>
	<node id="cell4_39" x="8107.000000" y="5547.000000" type="priority"/>
	<node id="cell5_0" x="307.000000" y="5347.000000" type="priority"/>
	<node id="cell5_1" x="507.000000" y="5347.000000" type="priority"/>
	<node id="cell5_2" x="707.000000" y="5347.000000" type="priority"/>
	<node id="cell5_3" x="907.000000" y="5347.000000" type="priority"/>
	<node id="cell5_4" x="1107.000000" y="5347.000000" type="priority"/>
	<node id="cell5_5" x="1307.000000" y="5347.000000" type="priority"/>
	<node id="cell5_6" x="1507.000000" y="5347.000000" type="priority"/>
	<node id="cell5_7" x="1707.000000" y="5347.000000" type="priority"/>
	<node id="cell5_8" x="1907.000000" y="5347.000000" type="priority"/>
	<node id="cell5_9" x="2107.000000" y="5347.000000" type="priority"/>
	<node id="cell5_10" x="2307.000000" y="5347.000000" type="priority"/>
	<node id="cell5_11" x="2507.000000" y="5347.000000" type="priority"/>
	<node id="cell5_12" x="2707.000000" y="5347.000000" type="priority"/>
	<node id="cell5_13" x="2907.000000" y="5347.000000" type="priority"/>
	<node id="cell5_14" x="3107.000000" y="5347.000000" type="priority"/>
	<node id="cell5_15" x="3307.000000" y="5347.000000" type="priority"/>
	<node id="cell5_16" x="3507.000000" y="5347.000000" type="priority"/>
	<node id="cell5_17" x="3707.000000" y="5347.000000" type="priority"/>
	<node id="cell5_18" x="3907.000000" y="5347.000000" type="priority"/>
	<node id="cell5_19" x="4107.000000" y="5347.000000" type="priority"/>
	<node id="cell5_20" x="4307.000000" y="5347.000000" type="priority"/>
	<node id="cell5_21" x="4507.000000" y="5347.000000" type="priority"/>
	<node id="cell5_22" x="4707.000000" y="5347.000000" type="priority"/>
	<node id="cell5_23" x="4907.000000" y="5347.000000" type="priority"/>
	<node id="cell5_24" x="5107.000000" y="5347.000000" type="priority"/>
	<node id="cell5_25" x="5307.000000" y="5347.000000" type="priority"/>
	<node id="cell5_26" x="5507.000000" y="5347.000000" type="priority"/>
	<node id="cell5_27" x="5707.000000" y="5347.000000" type="priority"/>
	<node id="cell5_28" x="5907.000000" y="5347.000000" type="priority"/>
	<node id="cell5_29" x="6107.000000" y="5347.000000" type="priority"/>
	<node id="cell5_30" x="6307.000000" y="5347.000000" type="priority"/>
	<node id="cell5_31" x="6507.000000" y="5347.000000" type="priority"/>
	<node id="cell5_32" x="6707.000000" y="5347.000000" type="priority"/>
	<node id="cell5_33" x="6907.000000" y="5347.000000" type="priority"/>
	<node id="cell5_34" x="7107.000000" y="5347.000000" type="priority"/>
	<node id="cell5_35" x="7307.000000" y="5347.000000" type="priority"/>
	<node id="cell5_36" x="7507.000000" y="5347.000000" type="priority"/>
	<node id="cell5_37" x="7707.000000" y="5347.000000" type="priority"/>
	<node id="cell5_38" x="7907.000000" y="5347.000000" type="priority"/>
	<node id="cell5_39" x="8107.000000" y="5347.000000" type="priority"/>
	<node id="cell6_0" x="307.000000" y="5147.000000" type="priority"/>
	<node id="cell6_1" x="507.000000" y="5147.000000" type="priority"/>
	<node id="cell6_2" x="707.000000" y="5147.000000" type="priority"/>
	<node id="cell6_3" x="907.000000" y="5147.000000" type="priority"/>
	<node id="cell6_4" x="1107.000000" y="5147.000000" type="priority"/>
	<node id="cell6_5" x="1307.000000" y="5147.000000" type="priority"/>
	<node id="cell6_6" x="1507.000000" y="5147.000000" type="priority"/>
	<node id="cell6_7" x="1707.000000" y="5147.000000" type="priority"/>
	<node id="cell6_8" x="1907.000000" y="5147.000000" type="priority"/>
	<node id="cell6_9" x="2107.000000" y="5147.000000" type="priority"/>
	<node id="cell6_10" x="2307.000000" y="5147.000000" type="priority"/>
	<node id="cell6_11" x="2507.000000" y="5147.000000" type="priority"/>
	<node id="cell6_12" x="2707.000000" y="5147.000000" type="priority"/>
	<node id="cell6_13" x="2907.000000" y="5147.000000" type="priority"/>
	<node id="cell6_14" x="3107.000000" y="5147.000000" type="priority"/>
	<node id="cell6_15" x="3307.000000" y="5147.000000" type="priority"/>
	<node id="cell6_16" x="3507.000000" y="5147.000000" type="priority"/>
	<node id="cell6_17" x="3707.000000" y="5147.000000" type="priority"/>
	<node id="cell6_18" x="3907.000000" y="5147.000000" type="priority"/>
	<node id="cell6_19" x="4107.000000" y="5147.000000" type="priority"/>
	<node id="cell6_20" x="4307.000000" y="5147.000000" type="priority"/>
	<node id="cell6_21" x="4507.000000" y="5147.000000" type="priority"/>
	<node id="cell6_22" x="4707.000000" y="5147.000000" type="priority"/>
	<node id="cell6_23" x="4907.000000" y="5147.000000" type="priority"/>
	<node id="cell6_24" x="5107.000000" y="5147.000000" type="priority"/>
	<node id="cell6_25" x="5307.000000" y="5147.000000" type="priority"/>
	<node id="cell6_26" x="5507.000000" y="5147.000000" type="priority"/>
	<node id="cell6_27" x="5707.000000" y="5147.000000" type="priority"/>
	<node id="cell6_28" x="5907.000000" y="5147.000000" type="priority"/>
	<node id="cell6_29" x="6107.000000" y="5147.000000" type="priority"/>
	<node id="cell6_30" x="6307.000000" y="5147.000000" type="priority"/>
	<node id="cell6_31" x="6507.000000" y="5147.000000" type="priority"/>
	<node id="cell6_32" x="6707.000000" y="5147.000000" type="priority"/>
	<node id="cell6_33" x="6907.000000" y="5147.000000" type="priority"/>
	<node id="cell6_34" x="7107.000000" y="5147.000000" type="priority"/>
	<node id="cell6_35" x="7307.000000" y="5147.000000" type="priority"/>
	<node id="cell6_36" x="7507.000000" y="5147.000000" type="priority"/>
	<node id="cell6_37" x="7707.000000" y="5147.000000" type="priority"/>
	<node id="cell6_38" x="7907.000000" y="5147.000000" type="priority"/>
	<node id="cell6_39" x="8107.000000" y="5147.000000" type="priority"/>
	<node id="cell7_0" x="307.000000" y="4947.000000" type="priority"/>
	<node id="cell7_1" x="507.000000" y="4947.000000" type="priority"/>
	<node id="cell7_2" x="707.000000" y="4947.000000" type="priority"/>
	<node id="cell7_3" x="907.000000" y="4947.000000" type="priority"/>
	<node id="cell7_4" x="1107.000000" y="4947.000000" type="priority"/>
	<node id="cell7_5" x="1307.000000" y="4947.000000" type="priority"/>
	<node id="cell7_6" x="1507.000000" y="4947.000000" type="priority"/>
	<node id="cell7_7" x="1707.000000" y="4947.000000" type="priority"/>
	<node id="cell7_8" x="1907.000000" y="4947.000000" type="priority"/>
	<node id="cell7_9" x="2107.000000" y="4947.000000" type="priority"/>
	<node id="cell7_10" x="2307.000000" y="4947.000000" type="priority"/>
	<node id="cell7_11" x="2507.000000" y="4947.000000" type="priority"/>
	<node id="cell7_12" x="2707.000000" y="4947.000000" type="priority"/>
	<node id="cell7_13" x="2907.000000" y="4947.000000" type="priority"/>
	<node id="cell7_14" x="3107.000000" y="4947.000000" type="priority"/>
	<node id="cell7_15" x="3307.000000" y="4947.000000" type="priority"/>
	<node id="cell7_16" x="3507.000000" y="4947.000000" type="priority"/>
	<node id="cell7_17" x="3707.000000" y="4947.000000" type="priority"/>
	<node id="cell7_18" x="3907.000000" y="4947.000000" type="priority"/>
	<node id="cell7_19" x="4107.000000" y="4947.000000" type="priority"/>
	<node id="cell7_20" x="4307.000000" y="4947.000000" type="priority"/>
	<node id="cell7_21" x="4507.000000" y="4947.000000" type="priority"/>
	<node id="cell7_22" x="4707.000000" y="4947.000000" type="priority"/>
	<node id="cell7_23" x="4907.000000" y="4947.000000" type="priority"/>
	<node id="cell7_24" x="5107.000000" y="4947.000000" type="priority"/>
	<node id="cell7_25" x="5307.000000" y="4947.000000" type="priority"/>
	<node id="cell7_26" x="5507.000000" y="4947.000000" type="priority"/>
	<node id="cell7_27" x="5707.000000" y="4947.000000" type="priority"/>
	<node id="cell7_28" x="5907.000000" y="4947.000000" type="priority"/>
	<node id="cell7_29" x="6107.000000" y="4947.000000" type="priority"/>
	<node id="cell7_30" x="6307.000000" y="4947.000000" type="priority"/>
	<node id="cell7_31" x="6507.000000" y="4947.000000" type="priority"/>
	<node id="cell7_32" x="6707.000000" y="4947.000000" type="priority"/>
	<node id="cell7_33" x="6907.000000" y="4947.000000" type="priority"/>
	<node id="cell7_34" x="7107.000000" y="4947.000000" type="priority"/>
	<node id="cell7_35" x="7307.000000" y="4947.000000" type="priority"/>
	<node id="cell7_36" x="7507.000000" y="4947.000000" type="priority"/>
	<node id="cell7_37" x="7707.000000" y="4947.000000" type="priority"/>
	<node id="cell7_38" x="7907.000000" y="4947.000000" type="priority"/>
	<node id="cell7_39" x="8107.000000" y="4947.000000" type="priority"/>
	<node id="cell8_0" x="307.000000" y="4747.000000" type="priority"/>
	<node id="cell8_1" x="507.000000" y="4747.000000" type="priority"/>
	<node id="cell8_2" x="707.000000" y="4747.000000" type="priority"/>
	<node id="cell8_3" x="907.000000" y="4747.000000" type="priority"/>
	<node id="cell8_4" x="1107.000000" y="4747.000000" type="priority"/>
	<node id="cell8_5" x="1307.000000" y="4747.000000" type="priority"/>
	<node id="cell8_6" x="1507.000000" y="4747.000000" type="priority"/>
	<node id="cell8_7" x="1707.000000" y="4747.000000" type="priority"/>
	<node id="cell8_8" x="1907.000000" y="4747.000000" type="priority"/>
	<node id="cell8_9" x="2107.000000" y="4747.000000" type="priority"/>
	<node id="cell8_10" x="2307.000000" y="4747.000000" type="priority"/>
	<node id="cell8_11" x="2507.000000" y="4747.000000" type="priority"/>
	<node id="cell8_12" x="2707.000000" y="4747.000000" type="priority"/>
	<node id="cell8_13" x="2907.000000" y="4747.000000" type="priority"/>
	<node id="cell8_14" x="3107.000000" y="4747.000000" type="priority"/>
	<node id="cell8_15" x="3307.000000" y="4747.000000" type="priority"/>
	<node id="cell8_16" x="3507.000000" y="4747.000000" type="priority"/>
	<node id="cell8_17" x="3707.000000" y="4747.000000" type="priority"/>
	<node id="cell8_18" x="3907.000000" y="4747.000000" type="priority"/>
	<node id="cell8_19" x="4107.000000" y="4747.000000" type="priority"/>
	<node id="cell8_20" x="4307.000000" y="4747.000000" type="priority"/>
	<node id="cell8_21" x="4507.000000" y="4747.000000" type="priority"/>
	<node id="cell8_22" x="4707.000000" y="4747.000000" type="priority"/>
	<node id="cell8_23" x="4907.000000" y="4747.000000" type="priority"/>
	<node id="cell8_24" x="5107.000000" y="4747.000000" type="priority"/>
	<node id="cell8_25" x="5307.000000" y="4747.000000" type="priority"/>
	<node id="cell8_26" x="5507.000000" y="4747.000000" type="priority"/>
	<node id="cell8_27" x="5707.000000" y="4747.000000" type="priority"/>
	<node id="cell8_28" x="5907.000000" y="4747.000000" type="priority"/>
	<node id="cell8_29" x="6107.000000" y="4747.000000" type="priority"/>
	<node id="cell8_30" x="6307.000000" y="4747.000000" type="priority"/>
	<node id="cell8_31" x="6507.000000" y="4747.000000" type="priority"/>
	<node id="cell8_32" x="6707.000000" y="4747.000000" type="priority"/>
	<node id="cell8_33" x="6907.000000" y="4747.000000" type="priority"/>
	<node id="cell8_34" x="7107.000000" y="4747.000000" type="priority"/>
	<node id="cell8_35" x="7307.000000" y="4747.000000" type="priority"/>
	<node id="cell8_36" x="7507.000000" y="4747.000000" type="priority"/>
	<node id="cell8_37" x="7707.000000" y="4747.000000" type="priority"/>
	<node id="cell8_38" x="7907.000000" y="4747.000000" type="priority"/>
	<node id="cell8_39" x="8107.000000" y="4747.000000" type="priority"/>
	<node id="cell9_0" x="307.000000" y="4547.000000" type="priority"/>
	<node id="cell9_1" x="507.000000" y="4547.000000" type="priority"/>
	<node id="cell9_2" x="707.000000" y="4547.000000" type="priority"/>
	<node id="cell9_3" x="907.000000" y="4547.000000" type="priority"/>
	<node id="cell9_4" x="1107.000000" y="4547.000000" type="priority"/>
	<node id="cell9_5" x="1307.000000" y="4547.000000" type="priority"/>
	<node id="cell9_6" x="1507.000000" y="4547.000000" type="priority"/>
	<node id="cell9_7" x="1707.000000" y="4547.000000" type="priority"/>
	<node id="cell9_8" x="1907.000000" y="4547.000000" type="priority"/>
	<node id="cell9_9" x="2107.000000" y="4547.000000" type="priority"/>
	<node id="cell9_10" x="2307.000000" y="4547.000000" type="priority"/>
	<node id="cell9_11" x="2507.000000" y="4547.000000" type="priority"/>
	<node id="cell9_12" x="2707.000000" y="4547.000000" type="priority"/>
	<node id="cell9_13" x="2907.000000" y="4547.000000" type="priority"/>
	<node id="cell9_14" x="3107.000000" y="4547.000000" type="priority"/>
	<node id="cell9_15" x="3307.000000" y="4547.000000" type="priority"/>
	<node id="cell9_16" x="3507.000000" y="4547.000000" type="priority"/>
	<node id="cell9_17" x="3707.000000" y="4547.000000" type="priority"/>
	<node id="cell9_18" x="3907.000000" y="4547.000000" type="priority"/>
	<node id="cell9_19" x="4107.000000" y="4547.000000" type="priority"/>
	<node id="cell9_20" x="4307.000000" y="4547.000000" type="priority"/>
	<node id="cell9_21" x="4507.000000" y="4547.000000" type="priority"/>
	<node id="cell9_22" x="4707.000000" y="4547.000000" type="priority"/>
	<node id="cell9_23" x="4907.000000" y="4547.000000" type="priority"/>
	<node id="cell9_24" x="5107.000000" y="4547.000000" type="priority"/>
	<node id="cell9_25" x="5307.000000" y="4547.000000" type="priority"/>
	<node id="cell9_26" x="5507.000000" y="4547.000000" type="priority"/>
	<node id="cell9_27" x="5707.000000" y="4547.000000" type="priority"/>
	<node id="cell9_28" x="5907.000000" y="4547.000000" type="priority"/>
	<node id="cell9_29" x="6107.000000" y="4547.000000" type="priority"/>
	<node id="cell9_30" x="6307.000000" y="4547.000000" type="priority"/>
	<node id="cell9_31" x="6507.000000" y="4547.000000" type="priority"/>
	<node id="cell9_32" x="6707.000000" y="4547.000000" type="priority"/>
	<node id="cell9_33" x="6907.000000" y="4547.000000" type="priority"/>
	<node id="cell9_34" x="7107.000000" y="4547.000000" type="priority"/>
	<node id="cell9_35" x="7307.000000" y="4547.000000" type="priority"/>
	<node id="cell9_36" x="7507.000000" y="4547.000000" type="priority"/>
	<node id="cell9_37" x="7707.000000" y="4547.000000" type="priority"/>
	<node id="cell9_38" x="7907.000000" y="4547.000000" type="priority"/>
	<node id="cell9_39" x="8107.000000" y="4547.000000" type="priority"/>
	<node id="cell10_0" x="307.000000" y="4347.000000" type="priority"/>
	<node id="cell10_1" x="507.000000" y="4347.000000" type="priority"/>
	<node id="cell10_2" x="707.000000" y="4347.000000" type="priority"/>
	<node id="cell10_3" x="907.000000" y="4347.000000" type="priority"/>
	<node id="cell10_4" x="1107.000000" y="4347.000000" type="priority"/>
	<node id="cell10_5" x="1307.000000" y="4347.000000" type="priority"/>
	<node id="cell10_6" x="1507.000000" y="4347.000000" type="priority"/>
	<node id="cell10_7" x="1707.000000" y="4347.000000" type="priority"/>
	<node id="cell10_8" x="1907.000000" y="4347.000000" type="priority"/>
	<node id="cell10_9" x="2107.000000" y="4347.000000" type="priority"/>
	<node id="cell10_10" x="2307.000000" y="4347.000000" type="priority"/>
	<node id="cell10_11" x="2507.000000" y="4347.000000" type="priority"/>
	<node id="cell10_12" x="2707.000000" y="4347.000000" type="priority"/>
	<node id="cell10_13" x="2907.000000" y="4347.000000" type="priority"/>
	<node id="cell10_14" x="3107.000000" y="4347.000000" type="priority"/>
	<node id="cell10_15" x="3307.000000" y="4347.000000" type="priority"/>
	<node id="cell10_16" x="3507.000000" y="4347.000000" type="priority"/>
	<node id="cell10_17" x="3707.000000" y="4347.000000" type="priority"/>
	<node id="cell10_18" x="3907.000000" y="4347.000000" type="priority"/>
	<node id="cell10_19" x="4107.000000" y="4347.000000" type="priority"/>
	<node id="cell10_20" x="4307.000000" y="4347.000000" type="priority"/>
	<node id="cell10_21" x="4507.000000" y="4347.000000" type="priority"/>
	<node id="cell10_22" x="4707.000000" y="4347.000000" type="priority"/>
	<node id="cell10_23" x="4907.000000" y="4347.000000" type="priority"/>