<?xml version="1.0" encoding="UTF-8"?>

<!-- generated on 02/23/20 17:23:30 by Eclipse SUMO netedit Version 1.5.0
<configuration xmlns:xsi="http://www.w3.org/2001/XMLSchema-instance" xsi:noNamespaceSchemaLocation="http://sumo.dlr.de/xsd/netconvertConfiguration.xsd">

    <input>
        <sumo-net-file value="cologne.net.xml"/>
    </input>

    <output>
        <output-file value="cologne.net.xml"/>
        <plain-output-prefix value="C:\Users\gossq\Documents\GitHub\sumo-temporal-coverage\TAPASCologne-0.32.0\cologne"/>
    </output>

    <processing>
        <geometry.min-radius.fix.railways value="false"/>
        <geometry.max-grade.fix value="false"/>
        <offset.disable-normalization value="true"/>
        <lefthand value="false"/>
    </processing>

    <junctions>
        <no-internal-links value="true"/>
        <no-turnarounds value="true"/>
        <junctions.corner-detail value="0"/>
        <junctions.limit-turn-speed value="-1"/>
        <rectangular-lane-cut value="false"/>
    </junctions>

    <pedestrian>
        <walkingareas value="false"/>
    </pedestrian>

    <report>
        <aggregate-warnings value="5"/>
    </report>

</configuration>
-->

<tlLogics version="1.3" xmlns:xsi="http://www.w3.org/2001/XMLSchema-instance" xsi:noNamespaceSchemaLocation="http://sumo.dlr.de/xsd/tllogic_file.xsd">
    <tlLogic id="104255852" type="actuated" programID="0" offset="0">
        <phase duration="82" state="GGGGG" minDur="5" maxDur="50"/>
        <phase duration="3"  state="yyyyy"/>
        <phase duration="5"  state="rrrrr"/>
    </tlLogic>
    <tlLogic id="1069892408" type="actuated" programID="0" offset="0">
        <phase duration="82" state="GG" minDur="5" maxDur="50"/>
        <phase duration="3"  state="yy"/>
        <phase duration="5"  state="rr"/>
    </tlLogic>
    <tlLogic id="1078684116" type="actuated" programID="0" offset="0">
        <phase duration="82" state="GG" minDur="5" maxDur="50"/>
        <phase duration="3"  state="yy"/>
        <phase duration="5"  state="rr"/>
    </tlLogic>
    <tlLogic id="10929961" type="actuated" programID="0" offset="0">
        <phase duration="33" state="rrrrrGGGggrrrrrGGGgg" minDur="5" maxDur="50"/>
        <phase duration="3"  state="rrrrryyyggrrrrryyygg"/>
        <phase duration="6"  state="rrrrrrrrGGrrrrrrrrGG" minDur="5" maxDur="50"/>
        <phase duration="3"  state="rrrrrrrryyrrrrrrrryy"/>
        <phase duration="33" state="GGGggrrrrrGGGggrrrrr" minDur="5" maxDur="50"/>
        <phase duration="3"  state="yyyggrrrrryyyggrrrrr"/>
        <phase duration="6"  state="rrrGGrrrrrrrrGGrrrrr" minDur="5" maxDur="50"/>
        <phase duration="3"  state="rrryyrrrrrrrryyrrrrr"/>
    </tlLogic>
    <tlLogic id="112113814" type="actuated" programID="0" offset="0">
        <phase duration="38" state="GGggrrrGGGg" minDur="5" maxDur="50"/>
        <phase duration="3"  state="yyggrrryyyg"/>
        <phase duration="6"  state="rrGGrrrrrrG" minDur="5" maxDur="50"/>
        <phase duration="3"  state="rryyrrrrrry"/>
        <phase duration="37" state="rrrrGGgGrrr" minDur="5" maxDur="50"/>
        <phase duration="3"  state="rrrryyyyrrr"/>
    </tlLogic>
    <tlLogic id="116066334" type="actuated" programID="0" offset="0">
        <phase duration="38" state="rrrGGgGgg" minDur="5" maxDur="50"/>
        <phase duration="3"  state="rrryygygg"/>
        <phase duration="6"  state="rrrrrGrGG" minDur="5" maxDur="50"/>
        <phase duration="3"  state="rrrrryryy"/>
        <phase duration="37" state="GGgGrrrrr" minDur="5" maxDur="50"/>
        <phase duration="3"  state="yyyyrrrrr"/>
    </tlLogic>
    <tlLogic id="116066493" type="actuated" programID="0" offset="0">
        <phase duration="78" state="GggGGg" minDur="5" maxDur="50"/>
        <phase duration="3"  state="yggyyg"/>
        <phase duration="6"  state="rGGrrG" minDur="5" maxDur="50"/>
        <phase duration="3"  state="ryyrry"/>
    </tlLogic>
    <tlLogic id="116066994" type="actuated" programID="0" offset="0">
        <phase duration="38" state="rrrGGgGgg" minDur="5" maxDur="50"/>
        <phase duration="3"  state="rrryygygg"/>
        <phase duration="6"  state="rrrrrGrGG" minDur="5" maxDur="50"/>
        <phase duration="3"  state="rrrrryryy"/>
        <phase duration="37" state="GGgGrrrrr" minDur="5" maxDur="50"/>
        <phase duration="3"  state="yyyyrrrrr"/>
    </tlLogic>
    <tlLogic id="116071536" type="actuated" programID="0" offset="0">
        <phase duration="38" state="rrrGGgGgg" minDur="5" maxDur="50"/>
        <phase duration="3"  state="rrryygygg"/>
        <phase duration="6"  state="rrrrrGrGG" minDur="5" maxDur="50"/>
        <phase duration="3"  state="rrrrryryy"/>
        <phase duration="37" state="GGgGrrrrr" minDur="5" maxDur="50"/>
        <phase duration="3"  state="yyyyrrrrr"/>
    </tlLogic>
    <tlLogic id="1218835384" type="actuated" programID="0" offset="0">
        <phase duration="42" state="Gr" minDur="5" maxDur="50"/>
        <phase duration="3"  state="yr"/>
        <phase duration="42" state="rG" minDur="5" maxDur="50"/>
        <phase duration="3"  state="ry"/>
    </tlLogic>
    <tlLogic id="1235190271" type="actuated" programID="0" offset="0">
        <phase duration="38" state="GGgGggrrr" minDur="5" maxDur="50"/>
        <phase duration="3"  state="yygyggrrr"/>
        <phase duration="6"  state="rrGrGGrrr" minDur="5" maxDur="50"/>
        <phase duration="3"  state="rryryyrrr"/>
        <phase duration="37" state="GrrrrrGGg" minDur="5" maxDur="50"/>
        <phase duration="3"  state="yrrrrryyy"/>
    </tlLogic>
    <tlLogic id="1238704" type="actuated" programID="0" offset="0">
        <phase duration="38" state="GggGGgrrr" minDur="5" maxDur="50"/>
        <phase duration="3"  state="yggyygrrr"/>
        <phase duration="6"  state="rGGrrGrrr" minDur="5" maxDur="50"/>
        <phase duration="3"  state="ryyrryrrr"/>
        <phase duration="37" state="rrrrrrGGG" minDur="5" maxDur="50"/>
        <phase duration="3"  state="rrrrrryyy"/>
    </tlLogic>
    <tlLogic id="126210510" type="actuated" programID="0" offset="0">
        <phase duration="38" state="GGGgrrrrGGgg" minDur="5" maxDur="50"/>
        <phase duration="3"  state="yyygrrrryygg"/>
        <phase duration="6"  state="rrrGrrrrrrGG" minDur="5" maxDur="50"/>
        <phase duration="3"  state="rrryrrrrrryy"/>
        <phase duration="37" state="rrrrGGGGrrrr" minDur="5" maxDur="50"/>
        <phase duration="3"  state="rrrryyyyrrrr"/>
    </tlLogic>
    <tlLogic id="1352605" type="actuated" programID="0" offset="0">
        <phase duration="42" state="GGGGrrr" minDur="5" maxDur="50"/>
        <phase duration="3"  state="yyyyrrr"/>
        <phase duration="42" state="rrrrGGG" minDur="5" maxDur="50"/>
        <phase duration="3"  state="rrrryyy"/>
    </tlLogic>
    <tlLogic id="1352608" type="actuated" programID="0" offset="0">
        <phase duration="38" state="GGggGGggrrrr" minDur="5" maxDur="50"/>
        <phase duration="3"  state="yyggyyggrrrr"/>
        <phase duration="6"  state="rrGGrrGGrrrr" minDur="5" maxDur="50"/>
        <phase duration="3"  state="rryyrryyrrrr"/>
        <phase duration="37" state="GrrrrrrrGGGg" minDur="5" maxDur="50"/>
        <phase duration="3"  state="yrrrrrrryyyy"/>
    </tlLogic>
    <tlLogic id="136984067" type="actuated" programID="0" offset="0">
        <phase duration="38" state="GGggrrrGGGg" minDur="5" maxDur="50"/>
        <phase duration="3"  state="yyggrrryyyg"/>
        <phase duration="6"  state="rrGGrrrrrrG" minDur="5" maxDur="50"/>
        <phase duration="3"  state="rryyrrrrrry"/>
        <phase duration="37" state="rrrrGGgGrrr" minDur="5" maxDur="50"/>
        <phase duration="3"  state="rrrryyyyrrr"/>
    </tlLogic>
    <tlLogic id="1383976424" type="actuated" programID="0" offset="0">
        <phase duration="82" state="GGG" minDur="5" maxDur="50"/>
        <phase duration="3"  state="yyy"/>
        <phase duration="5"  state="rrr"/>
    </tlLogic>
    <tlLogic id="143393761" type="actuated" programID="0" offset="0">
        <phase duration="38" state="GGGggGGGggrrrr" minDur="5" maxDur="50"/>
        <phase duration="3"  state="yyyggyyyggrrrr"/>
        <phase duration="6"  state="rrrGGrrrGGrrrr" minDur="5" maxDur="50"/>
        <phase duration="3"  state="rrryyrrryyrrrr"/>
        <phase duration="37" state="GrrrrrrrrrGGGg" minDur="5" maxDur="50"/>
        <phase duration="3"  state="yrrrrrrrrryyyy"/>
    </tlLogic>
    <tlLogic id="143500528" type="actuated" programID="0" offset="0">
        <phase duration="33" state="rrrrGGggrrrrGGGgg" minDur="5" maxDur="50"/>
        <phase duration="3"  state="rrrryyggrrrryyygg"/>
        <phase duration="6"  state="rrrrrrGGrrrrrrrGG" minDur="5" maxDur="50"/>
        <phase duration="3"  state="rrrrrryyrrrrrrryy"/>
        <phase duration="33" state="GGggrrrrGGggrrrrr" minDur="5" maxDur="50"/>
        <phase duration="3"  state="yyggrrrryyggrrrrr"/>
        <phase duration="6"  state="rrGGrrrrrrGGrrrrr" minDur="5" maxDur="50"/>
        <phase duration="3"  state="rryyrrrrrryyrrrrr"/>
    </tlLogic>
    <tlLogic id="1446058758" type="actuated" programID="0" offset="0">
        <phase duration="33" state="rrrrGGGggrrrrGGGgg" minDur="5" maxDur="50"/>
        <phase duration="3"  state="rrrryyyggrrrryyygg"/>
        <phase duration="6"  state="rrrrrrrGGrrrrrrrGG" minDur="5" maxDur="50"/>
        <phase duration="3"  state="rrrrrrryyrrrrrrryy"/>
        <phase duration="33" state="GGggrrrrrGGggrrrrr" minDur="5" maxDur="50"/>
        <phase duration="3"  state="yyggrrrrryyggrrrrr"/>
        <phase duration="6"  state="rrGGrrrrrrrGGrrrrr" minDur="5" maxDur="50"/>
        <phase duration="3"  state="rryyrrrrrrryyrrrrr"/>
    </tlLogic>
    <tlLogic id="1456574967" type="actuated" programID="0" offset="0">
        <phase duration="42" state="GgGr" minDur="5" maxDur="50"/>
        <phase duration="3"  state="yyyr"/>
        <phase duration="42" state="rrGG" minDur="5" maxDur="50"/>
        <phase duration="3"  state="rryy"/>
    </tlLogic>
    <tlLogic id="1456583615" type="actuated" programID="0" offset="0">
        <phase duration="33" state="rrrrGGGggrrrrGGGgg" minDur="5" maxDur="50"/>
        <phase duration="3"  state="rrrryyyggrrrryyygg"/>
        <phase duration="6"  state="rrrrrrrGGrrrrrrrGG" minDur="5" maxDur="50"/>
        <phase duration="3"  state="rrrrrrryyrrrrrrryy"/>
        <phase duration="33" state="GGggrrrrrGGggrrrrr" minDur="5" maxDur="50"/>
        <phase duration="3"  state="yyggrrrrryyggrrrrr"/>
        <phase duration="6"  state="rrGGrrrrrrrGGrrrrr" minDur="5" maxDur="50"/>
        <phase duration="3"  state="rryyrrrrrrryyrrrrr"/>
    </tlLogic>
    <tlLogic id="1456613109" type="actuated" programID="0" offset="0">
        <phase duration="33" state="rrGGggrrGGgg" minDur="5" maxDur="50"/>
        <phase duration="3"  state="rryyggrryygg"/>
        <phase duration="6"  state="rrrrGGrrrrGG" minDur="5" maxDur="50"/>
        <phase duration="3"  state="rrrryyrrrryy"/>
        <phase duration="33" state="GgrrrrGgrrrr" minDur="5" maxDur="50"/>
        <phase duration="3"  state="ygrrrrygrrrr"/>
        <phase duration="6"  state="rGrrrrrGrrrr" minDur="5" maxDur="50"/>
        <phase duration="3"  state="ryrrrrryrrrr"/>
    </tlLogic>
    <tlLogic id="1456626159" type="actuated" programID="0" offset="0">
        <phase duration="33" state="rrrrGGggrrrrGGgg" minDur="5" maxDur="50"/>
        <phase duration="3"  state="rrrryyggrrrryygg"/>
        <phase duration="6"  state="rrrrrrGGrrrrrrGG" minDur="5" maxDur="50"/>
        <phase duration="3"  state="rrrrrryyrrrrrryy"/>
        <phase duration="33" state="GGggrrrrGGggrrrr" minDur="5" maxDur="50"/>
        <phase duration="3"  state="yyggrrrryyggrrrr"/>
        <phase duration="6"  state="rrGGrrrrrrGGrrrr" minDur="5" maxDur="50"/>
        <phase duration="3"  state="rryyrrrrrryyrrrr"/>
    </tlLogic>
    <tlLogic id="1457715959" type="actuated" programID="0" offset="0">
        <phase duration="38" state="rrrGGGgGGgg" minDur="5" maxDur="50"/>
        <phase duration="3"  state="rrryyygyygg"/>
        <phase duration="6"  state="rrrrrrGrrGG" minDur="5" maxDur="50"/>
        <phase duration="3"  state="rrrrrryrryy"/>
        <phase duration="37" state="GGgGrrrrrrr" minDur="5" maxDur="50"/>
        <phase duration="3"  state="yyyyrrrrrrr"/>
    </tlLogic>
    <tlLogic id="1457829111" type="actuated" programID="0" offset="0">
        <phase duration="38" state="GGggrrrGGGg" minDur="5" maxDur="50"/>
        <phase duration="3"  state="yyggrrryyyg"/>
        <phase duration="6"  state="rrGGrrrrrrG" minDur="5" maxDur="50"/>
        <phase duration="3"  state="rryyrrrrrry"/>
        <phase duration="37" state="rrrrGGgGrrr" minDur="5" maxDur="50"/>
        <phase duration="3"  state="rrrryyyyrrr"/>
    </tlLogic>
    <tlLogic id="1457829112" type="actuated" programID="0" offset="0">
        <phase duration="78" state="GGGgGGgg" minDur="5" maxDur="50"/>
        <phase duration="3"  state="yyygyygg"/>
        <phase duration="6"  state="rrrGrrGG" minDur="5" maxDur="50"/>
        <phase duration="3"  state="rrryrryy"/>
    </tlLogic>
    <tlLogic id="1457856512" type="actuated" programID="0" offset="0">
        <phase duration="33" state="rrrrGGGggrrrrGGGgg" minDur="5" maxDur="50"/>
        <phase duration="3"  state="rrrryyyggrrrryyygg"/>
        <phase duration="6"  state="rrrrrrrGGrrrrrrrGG" minDur="5" maxDur="50"/>
        <phase duration="3"  state="rrrrrrryyrrrrrrryy"/>
        <phase duration="33" state="GGggrrrrrGGggrrrrr" minDur="5" maxDur="50"/>
        <phase duration="3"  state="yyggrrrrryyggrrrrr"/>
        <phase duration="6"  state="rrGGrrrrrrrGGrrrrr" minDur="5" maxDur="50"/>
        <phase duration="3"  state="rryyrrrrrrryyrrrrr"/>
    </tlLogic>
    <tlLogic id="1457856553" type="actuated" programID="0" offset="0">
        <phase duration="38" state="rrrGGGgGGgg" minDur="5" maxDur="50"/>
        <phase duration="3"  state="rrryyygyygg"/>
        <phase duration="6"  state="rrrrrrGrrGG" minDur="5" maxDur="50"/>
        <phase duration="3"  state="rrrrrryrryy"/>
        <phase duration="37" state="GGgGrrrrrrr" minDur="5" maxDur="50"/>
        <phase duration="3"  state="yyyyrrrrrrr"/>
    </tlLogic>
    <tlLogic id="1458169782" type="actuated" programID="0" offset="0">
        <phase duration="33" state="GGggrrrrGGggrrrr" minDur="5" maxDur="50"/>
        <phase duration="3"  state="yyggrrrryyggrrrr"/>
        <phase duration="6"  state="rrGGrrrrrrGGrrrr" minDur="5" maxDur="50"/>
        <phase duration="3"  state="rryyrrrrrryyrrrr"/>
        <phase duration="33" state="rrrrGGggrrrrGGgg" minDur="5" maxDur="50"/>
        <phase duration="3"  state="rrrryyggrrrryygg"/>
        <phase duration="6"  state="rrrrrrGGrrrrrrGG" minDur="5" maxDur="50"/>
        <phase duration="3"  state="rrrrrryyrrrrrryy"/>
    </tlLogic>
    <tlLogic id="1458613093" type="actuated" programID="0" offset="0">
        <phase duration="38" state="GggrrrGGg" minDur="5" maxDur="50"/>
        <phase duration="3"  state="yggrrryyg"/>
        <phase duration="6"  state="rGGrrrrrG" minDur="5" maxDur="50"/>
        <phase duration="3"  state="ryyrrrrry"/>
        <phase duration="37" state="rrrGGgGrr" minDur="5" maxDur="50"/>
        <phase duration="3"  state="rrryyyyrr"/>
    </tlLogic>
    <tlLogic id="1458613401" type="actuated" programID="0" offset="0">
        <phase duration="33" state="rrrrGGggrrrrGGgg" minDur="5" maxDur="50"/>
        <phase duration="3"  state="rrrryyggrrrryygg"/>
        <phase duration="6"  state="rrrrrrGGrrrrrrGG" minDur="5" maxDur="50"/>
        <phase duration="3"  state="rrrrrryyrrrrrryy"/>
        <phase duration="33" state="GGggrrrrGGggrrrr" minDur="5" maxDur="50"/>
        <phase duration="3"  state="yyggrrrryyggrrrr"/>
        <phase duration="6"  state="rrGGrrrrrrGGrrrr" minDur="5" maxDur="50"/>
        <phase duration="3"  state="rryyrrrrrryyrrrr"/>
    </tlLogic>
    <tlLogic id="1458613631" type="actuated" programID="0" offset="0">
        <phase duration="38" state="GGgGggrrr" minDur="5" maxDur="50"/>
        <phase duration="3"  state="yygyggrrr"/>
        <phase duration="6"  state="rrGrGGrrr" minDur="5" maxDur="50"/>
        <phase duration="3"  state="rryryyrrr"/>
        <phase duration="37" state="GrrrrrGGg" minDur="5" maxDur="50"/>
        <phase duration="3"  state="yrrrrryyy"/>
    </tlLogic>
    <tlLogic id="1458613683" type="actuated" programID="0" offset="0">
        <phase duration="33" state="GGggrrrrGGggrrrr" minDur="5" maxDur="50"/>
        <phase duration="3"  state="yyggrrrryyggrrrr"/>
        <phase duration="6"  state="rrGGrrrrrrGGrrrr" minDur="5" maxDur="50"/>
        <phase duration="3"  state="rryyrrrrrryyrrrr"/>
        <phase duration="33" state="rrrrGGggrrrrGGgg" minDur="5" maxDur="50"/>
        <phase duration="3"  state="rrrryyggrrrryygg"/>
        <phase duration="6"  state="rrrrrrGGrrrrrrGG" minDur="5" maxDur="50"/>
        <phase duration="3"  state="rrrrrryyrrrrrryy"/>
    </tlLogic>
    <tlLogic id="1458614316" type="actuated" programID="0" offset="0">
        <phase duration="38" state="GGGgrrrGGgg" minDur="5" maxDur="50"/>
        <phase duration="3"  state="yyygrrryygg"/>
        <phase duration="6"  state="rrrGrrrrrGG" minDur="5" maxDur="50"/>
        <phase duration="3"  state="rrryrrrrryy"/>
        <phase duration="37" state="rrrrGGGrrrr" minDur="5" maxDur="50"/>
        <phase duration="3"  state="rrrryyyrrrr"/>
    </tlLogic>
    <tlLogic id="1458680158" type="actuated" programID="0" offset="0">
        <phase duration="38" state="GGggrrrGGGg" minDur="5" maxDur="50"/>
        <phase duration="3"  state="yyggrrryyyg"/>
        <phase duration="6"  state="rrGGrrrrrrG" minDur="5" maxDur="50"/>
        <phase duration="3"  state="rryyrrrrrry"/>
        <phase duration="37" state="rrrrGGgGrrr" minDur="5" maxDur="50"/>
        <phase duration="3"  state="rrrryyyyrrr"/>
    </tlLogic>
    <tlLogic id="1458680299" type="actuated" programID="0" offset="0">
        <phase duration="33" state="rrrrGGGggrrrrGGGgg" minDur="5" maxDur="50"/>
        <phase duration="3"  state="rrrryyyggrrrryyygg"/>
        <phase duration="6"  state="rrrrrrrGGrrrrrrrGG" minDur="5" maxDur="50"/>
        <phase duration="3"  state="rrrrrrryyrrrrrrryy"/>
        <phase duration="33" state="GGggrrrrrGGggrrrrr" minDur="5" maxDur="50"/>
        <phase duration="3"  state="yyggrrrrryyggrrrrr"/>
        <phase duration="6"  state="rrGGrrrrrrrGGrrrrr" minDur="5" maxDur="50"/>
        <phase duration="3"  state="rryyrrrrrrryyrrrrr"/>
    </tlLogic>
    <tlLogic id="1458992569" type="actuated" programID="0" offset="0">
        <phase duration="38" state="grrrGG" minDur="5" maxDur="50"/>
        <phase duration="3"  state="grrryy"/>
        <phase duration="6"  state="Grrrrr" minDur="5" maxDur="50"/>
        <phase duration="3"  state="yrrrrr"/>
        <phase duration="37" state="rGGGrr" minDur="5" maxDur="50"/>
        <phase duration="3"  state="ryyyrr"/>
    </tlLogic>
    <tlLogic id="1458992721" type="actuated" programID="0" offset="0">
        <phase duration="33" state="GGGggrrrrGGGggrrrr" minDur="5" maxDur="50"/>
        <phase duration="3"  state="yyyggrrrryyyggrrrr"/>
        <phase duration="6"  state="rrrGGrrrrrrrGGrrrr" minDur="5" maxDur="50"/>
        <phase duration="3"  state="rrryyrrrrrrryyrrrr"/>
        <phase duration="33" state="rrrrrGGggrrrrrGGgg" minDur="5" maxDur="50"/>
        <phase duration="3"  state="rrrrryyggrrrrryygg"/>
        <phase duration="6"  state="rrrrrrrGGrrrrrrrGG" minDur="5" maxDur="50"/>
        <phase duration="3"  state="rrrrrrryyrrrrrrryy"/>
    </tlLogic>
    <tlLogic id="146744271" type="actuated" programID="0" offset="0">
        <phase duration="38" state="rrrGGgg" minDur="5" maxDur="50"/>
        <phase duration="3"  state="rrryygg"/>
        <phase duration="6"  state="rrrrrGG" minDur="5" maxDur="50"/>
        <phase duration="3"  state="rrrrryy"/>
        <phase duration="37" state="GGGrrrr" minDur="5" maxDur="50"/>
        <phase duration="3"  state="yyyrrrr"/>
    </tlLogic>
    <tlLogic id="14880880" type="actuated" programID="0" offset="0">
        <phase duration="33" state="GGGggrrrrGGGggrrrr" minDur="5" maxDur="50"/>
        <phase duration="3"  state="yyyggrrrryyyggrrrr"/>
        <phase duration="6"  state="rrrGGrrrrrrrGGrrrr" minDur="5" maxDur="50"/>
        <phase duration="3"  state="rrryyrrrrrrryyrrrr"/>
        <phase duration="33" state="rrrrrGGggrrrrrGGgg" minDur="5" maxDur="50"/>
        <phase duration="3"  state="rrrrryyggrrrrryygg"/>
        <phase duration="6"  state="rrrrrrrGGrrrrrrrGG" minDur="5" maxDur="50"/>
        <phase duration="3"  state="rrrrrrryyrrrrrrryy"/>
    </tlLogic>
    <tlLogic id="14880884" type="actuated" programID="0" offset="0">
        <phase duration="33" state="GGGggrrrrGGGggrrrr" minDur="5" maxDur="50"/>
        <phase duration="3"  state="yyyggrrrryyyggrrrr"/>
        <phase duration="6"  state="rrrGGrrrrrrrGGrrrr" minDur="5" maxDur="50"/>
        <phase duration="3"  state="rrryyrrrrrrryyrrrr"/>
        <phase duration="33" state="rrrrrGGggrrrrrGGgg" minDur="5" maxDur="50"/>
        <phase duration="3"  state="rrrrryyggrrrrryygg"/>
        <phase duration="6"  state="rrrrrrrGGrrrrrrrGG" minDur="5" maxDur="50"/>
        <phase duration="3"  state="rrrrrrryyrrrrrrryy"/>
    </tlLogic>
    <tlLogic id="14880887" type="actuated" programID="0" offset="0">
        <phase duration="38" state="GGgrrGGgrr" minDur="5" maxDur="50"/>
        <phase duration="3"  state="yyyrryyyrr"/>
        <phase duration="37" state="rrrGgrrrGg" minDur="5" maxDur="50"/>
        <phase duration="3"  state="rrrygrrryg"/>
        <phase duration="6"  state="rrrrGrrrrG" minDur="5" maxDur="50"/>
        <phase duration="3"  state="rrrryrrrry"/>
    </tlLogic>
    <tlLogic id="14880922" type="actuated" programID="0" offset="0">
        <phase duration="33" state="GGGggrrrrGGGggrrrr" minDur="5" maxDur="50"/>
        <phase duration="3"  state="yyyggrrrryyyggrrrr"/>
        <phase duration="6"  state="rrrGGrrrrrrrGGrrrr" minDur="5" maxDur="50"/>
        <phase duration="3"  state="rrryyrrrrrrryyrrrr"/>
        <phase duration="33" state="rrrrrGGggrrrrrGGgg" minDur="5" maxDur="50"/>
        <phase duration="3"  state="rrrrryyggrrrrryygg"/>
        <phase duration="6"  state="rrrrrrrGGrrrrrrrGG" minDur="5" maxDur="50"/>
        <phase duration="3"  state="rrrrrrryyrrrrrrryy"/>
    </tlLogic>
    <tlLogic id="14882430" type="actuated" programID="0" offset="0">
        <phase duration="78" state="GGggGGg" minDur="5" maxDur="50"/>
        <phase duration="3"  state="yyggyyg"/>
        <phase duration="6"  state="rrGGrrG" minDur="5" maxDur="50"/>
        <phase duration="3"  state="rryyrry"/>
    </tlLogic>
    <tlLogic id="1492311049" type="actuated" programID="0" offset="0">
        <phase duration="33" state="GGGggrrrrGGggrrrr" minDur="5" maxDur="50"/>
        <phase duration="3"  state="yyyggrrrryyggrrrr"/>
        <phase duration="6"  state="rrrGGrrrrrrGGrrrr" minDur="5" maxDur="50"/>
        <phase duration="3"  state="rrryyrrrrrryyrrrr"/>
        <phase duration="33" state="rrrrrGGggrrrrGGgg" minDur="5" maxDur="50"/>
        <phase duration="3"  state="rrrrryyggrrrryygg"/>
        <phase duration="6"  state="rrrrrrrGGrrrrrrGG" minDur="5" maxDur="50"/>
        <phase duration="3"  state="rrrrrrryyrrrrrryy"/>
    </tlLogic>
    <tlLogic id="1547098330" type="actuated" programID="0" offset="0">
        <phase duration="78" state="GGgGgg" minDur="5" maxDur="50"/>
        <phase duration="3"  state="yygygg"/>
        <phase duration="6"  state="rrGrGG" minDur="5" maxDur="50"/>
        <phase duration="3"  state="rryryy"/>
    </tlLogic>
    <tlLogic id="1556009031" type="actuated" programID="0" offset="0">
        <phase duration="29" state="rrrrGGgrrrGGGgg" minDur="5" maxDur="50"/>
        <phase duration="5"  state="rrrryygrrryyygg"/>
        <phase duration="6"  state="rrrrrrGrrrrrrGG" minDur="5" maxDur="50"/>
        <phase duration="5"  state="rrrrrryrrrrrryy"/>
        <phase duration="29" state="GGggrrrGggrrrrr" minDur="5" maxDur="50"/>
        <phase duration="5"  state="yyggrrryggrrrrr"/>
        <phase duration="6"  state="rrGGrrrrGGrrrrr" minDur="5" maxDur="50"/>
        <phase duration="5"  state="rryyrrrryyrrrrr"/>
    </tlLogic>
    <tlLogic id="1562372200" type="actuated" programID="0" offset="0">
        <phase duration="38" state="GGggrrrGGGg" minDur="5" maxDur="50"/>
        <phase duration="3"  state="yyggrrryyyg"/>
        <phase duration="6"  state="rrGGrrrrrrG" minDur="5" maxDur="50"/>
        <phase duration="3"  state="rryyrrrrrry"/>
        <phase duration="37" state="rrrrGGgGrrr" minDur="5" maxDur="50"/>
        <phase duration="3"  state="rrrryyyyrrr"/>
    </tlLogic>
    <tlLogic id="1562372786" type="actuated" programID="0" offset="0">
        <phase duration="38" state="GGggrrrGGGg" minDur="5" maxDur="50"/>
        <phase duration="3"  state="yyggrrryyyg"/>
        <phase duration="6"  state="rrGGrrrrrrG" minDur="5" maxDur="50"/>
        <phase duration="3"  state="rryyrrrrrry"/>
        <phase duration="37" state="rrrrGGgGrrr" minDur="5" maxDur="50"/>
        <phase duration="3"  state="rrrryyyyrrr"/>
    </tlLogic>
    <tlLogic id="1562373025" type="actuated" programID="0" offset="0">
        <phase duration="33" state="GGGggrrrrGGGggrrrr" minDur="5" maxDur="50"/>
        <phase duration="3"  state="yyyggrrrryyyggrrrr"/>
        <phase duration="6"  state="rrrGGrrrrrrrGGrrrr" minDur="5" maxDur="50"/>
        <phase duration="3"  state="rrryyrrrrrrryyrrrr"/>
        <phase duration="33" state="rrrrrGGggrrrrrGGgg" minDur="5" maxDur="50"/>
        <phase duration="3"  state="rrrrryyggrrrrryygg"/>
        <phase duration="6"  state="rrrrrrrGGrrrrrrrGG" minDur="5" maxDur="50"/>
        <phase duration="3"  state="rrrrrrryyrrrrrrryy"/>
    </tlLogic>
    <tlLogic id="158689490" type="actuated" programID="0" offset="0">
        <phase duration="42" state="GG" minDur="5" maxDur="50"/>
        <phase duration="3"  state="yy"/>
        <phase duration="42" state="GG" minDur="5" maxDur="50"/>
        <phase duration="3"  state="yy"/>
    </tlLogic>
    <tlLogic id="1590438886" type="actuated" programID="0" offset="0">
        <phase duration="38" state="GGGgGGggrrr" minDur="5" maxDur="50"/>
        <phase duration="3"  state="yyygyyggrrr"/>
        <phase duration="6"  state="rrrGrrGGrrr" minDur="5" maxDur="50"/>
        <phase duration="3"  state="rrryrryyrrr"/>
        <phase duration="37" state="GrrrrrrrGGg" minDur="5" maxDur="50"/>
        <phase duration="3"  state="yrrrrrrryyy"/>
    </tlLogic>
    <tlLogic id="1590904087" type="actuated" programID="0" offset="0">
        <phase duration="38" state="rrrrGGGggGGgg" minDur="5" maxDur="50"/>
        <phase duration="3"  state="rrrryyyggyygg"/>
        <phase duration="6"  state="rrrrrrrGGrrGG" minDur="5" maxDur="50"/>
        <phase duration="3"  state="rrrrrrryyrryy"/>
        <phase duration="37" state="GGGgGrrrrrrrr" minDur="5" maxDur="50"/>
        <phase duration="3"  state="yyyyyrrrrrrrr"/>
    </tlLogic>
    <tlLogic id="1598001037" type="actuated" programID="0" offset="0">
        <phase duration="33" state="GGGggrrrrGGGggrrrr" minDur="5" maxDur="50"/>
        <phase duration="3"  state="yyyggrrrryyyggrrrr"/>
        <phase duration="6"  state="rrrGGrrrrrrrGGrrrr" minDur="5" maxDur="50"/>
        <phase duration="3"  state="rrryyrrrrrrryyrrrr"/>
        <phase duration="33" state="rrrrrGGggrrrrrGGgg" minDur="5" maxDur="50"/>
        <phase duration="3"  state="rrrrryyggrrrrryygg"/>
        <phase duration="6"  state="rrrrrrrGGrrrrrrrGG" minDur="5" maxDur="50"/>
        <phase duration="3"  state="rrrrrrryyrrrrrrryy"/>
    </tlLogic>
    <tlLogic id="1599072232" type="actuated" programID="0" offset="0">
        <phase duration="33" state="GGGggrrrrGGGggrrrr" minDur="5" maxDur="50"/>
        <phase duration="3"  state="yyyggrrrryyyggrrrr"/>
        <phase duration="6"  state="rrrGGrrrrrrrGGrrrr" minDur="5" maxDur="50"/>
        <phase duration="3"  state="rrryyrrrrrrryyrrrr"/>
        <phase duration="33" state="rrrrrGGggrrrrrGGgg" minDur="5" maxDur="50"/>
        <phase duration="3"  state="rrrrryyggrrrrryygg"/>
        <phase duration="6"  state="rrrrrrrGGrrrrrrrGG" minDur="5" maxDur="50"/>
        <phase duration="3"  state="rrrrrrryyrrrrrrryy"/>
    </tlLogic>
    <tlLogic id="16048108" type="actuated" programID="0" offset="0">
        <phase duration="33" state="GGGggrrrrGGGggrrrr" minDur="5" maxDur="50"/>
        <phase duration="3"  state="yyyggrrrryyyggrrrr"/>
        <phase duration="6"  state="rrrGGrrrrrrrGGrrrr" minDur="5" maxDur="50"/>
        <phase duration="3"  state="rrryyrrrrrrryyrrrr"/>
        <phase duration="33" state="rrrrrGGggrrrrrGGgg" minDur="5" maxDur="50"/>
        <phase duration="3"  state="rrrrryyggrrrrryygg"/>
        <phase duration="6"  state="rrrrrrrGGrrrrrrrGG" minDur="5" maxDur="50"/>
        <phase duration="3"  state="rrrrrrryyrrrrrrryy"/>
    </tlLogic>
    <tlLogic id="161724687" type="actuated" programID="0" offset="0">
        <phase duration="38" state="GgrrGg" minDur="5" maxDur="50"/>
        <phase duration="3"  state="ygrryg"/>
        <phase duration="6"  state="rGrrrG" minDur="5" maxDur="50"/>
        <phase duration="3"  state="ryrrry"/>
        <phase duration="37" state="rrGgGr" minDur="5" maxDur="50"/>
        <phase duration="3"  state="rryyyr"/>
    </tlLogic>
    <tlLogic id="1629760140" type="actuated" programID="0" offset="0">
        <phase duration="33" state="rrrGGgrrrGgg" minDur="5" maxDur="50"/>
        <phase duration="3"  state="rrryygrrrygg"/>
        <phase duration="6"  state="rrrrrGrrrrGG" minDur="5" maxDur="50"/>
        <phase duration="3"  state="rrrrryrrrryy"/>
        <phase duration="33" state="GggrrrGGgrrr" minDur="5" maxDur="50"/>
        <phase duration="3"  state="yggrrryygrrr"/>