<?xml version="1.0" encoding="UTF-8"?>

<!-- generated on 02/23/20 17:23:23 by Eclipse SUMO netedit Version 1.5.0
<configuration xmlns:xsi="http://www.w3.org/2001/XMLSchema-instance" xsi:noNamespaceSchemaLocation="http://sumo.dlr.de/xsd/netconvertConfiguration.xsd">

    <input>
        <sumo-net-file value="cologne.net.xml"/>
    </input>

    <output>
        <output-file value="cologne.net.xml"/>
        <plain-output-prefix value="C:\Users\gossq\Documents\GitHub\sumo-temporal-coverage\TAPASCologne-0.32.0\cologne"/>
    </output>

    <processing>
        <geometry.min-radius.fix.railways value="false"/>
        <geometry.max-grade.fix value="false"/>
        <offset.disable-normalization value="true"/>
        <lefthand value="false"/>
    </processing>

    <junctions>
        <no-internal-links value="true"/>
        <no-turnarounds value="true"/>
        <junctions.corner-detail value="0"/>
        <junctions.limit-turn-speed value="-1"/>
        <rectangular-lane-cut value="false"/>
    </junctions>

    <pedestrian>
        <walkingareas value="false"/>
    </pedestrian>

    <report>
        <aggregate-warnings value="5"/>
    </report>

</configuration>
-->

<nodes version="1.3" xmlns:xsi="http://www.w3.org/2001/XMLSchema-instance" xsi:noNamespaceSchemaLocation="http://sumo.dlr.de/xsd/nodes_file.xsd">
    <location netOffset="-342498.65,-5630866.92" convBoundary="0.00,0.00,32300.19,34380.22" origBoundary="6.166558,50.735925,7.295276,51.840721" projParameter="+proj=utm +zone=32 +ellps=WGS84 +datum=WGS84 +units=m +no_defs"/>

    <node id="1001081517" x="20989.43" y="13873.00" type="priority"/>
    <node id="1004021481" x="13900.40" y="13621.15" type="priority"/>
    <node id="1008811668" x="25972.56" y="31952.56" type="priority"/>
    <node id="1008811770" x="25956.25" y="32038.33" type="priority"/>
    <node id="1008811807" x="25853.08" y="32078.73" type="priority"/>
    <node id="10089982-AddedOffRampNode" x="10679.22" y="9761.43" type="priority"/>
    <node id="1011099489" x="19458.74" y="32712.83" type="priority"/>
    <node id="1011580573" x="12692.04" y="19269.24" type="priority"/>
    <node id="1011615148" x="16933.93" y="16064.55" type="priority"/>
    <node id="1011615152" x="16925.79" y="16072.22" type="priority"/>
    <node id="1011615160" x="16939.76" y="16059.06" type="priority"/>
    <node id="101464582" x="11972.19" y="16449.57" type="priority"/>
    <node id="1015090983" x="22413.47" y="4768.60" type="priority"/>
    <node id="1015870504" x="4537.24" y="33153.31" type="right_before_left"/>
    <node id="1015872304" x="4529.15" y="33221.54" type="priority"/>
    <node id="1015873935" x="4601.63" y="33191.04" type="right_before_left"/>
    <node id="1016541130" x="20913.18" y="6884.72" type="priority"/>
    <node id="1018942194" x="5147.41" y="9155.70" type="priority"/>
    <node id="1021041198" x="20995.11" y="13284.19" type="priority"/>
    <node id="1021041850" x="21187.37" y="13621.13" type="priority"/>
    <node id="1022244234" x="24996.88" y="30605.45" type="priority"/>
    <node id="1022244237" x="25061.48" y="30522.15" type="priority"/>
    <node id="1027823453" x="23804.87" y="4465.55" type="priority"/>
    <node id="1027974303" x="23933.83" y="4520.61" type="priority"/>
    <node id="1027974318" x="23946.65" y="4501.45" type="priority"/>
    <node id="1029323927" x="13868.02" y="2150.40" type="priority"/>
    <node id="1031014103" x="23837.56" y="4382.95" type="priority"/>
    <node id="1031014132" x="23771.08" y="4553.19" type="priority"/>
    <node id="1033910264" x="3544.31" y="11333.25" type="priority"/>
    <node id="1033910268" x="3746.73" y="11276.23" type="priority"/>
    <node id="1034075985" x="21483.13" y="18133.37" type="priority"/>
    <node id="1034075991" x="21583.30" y="18471.32" type="priority"/>
    <node id="1034076172" x="21524.94" y="18409.27" type="priority"/>
    <node id="1034076295" x="21579.96" y="18306.14" type="priority"/>
    <node id="1034076310" x="21516.86" y="18072.34" type="priority"/>
    <node id="1034076501" x="21596.14" y="18447.24" type="priority"/>
    <node id="1034076602" x="21633.89" y="18205.87" type="priority"/>
    <node id="1034076612" x="21604.59" y="18482.67" type="priority"/>
    <node id="1034076708" x="21505.28" y="18431.30" type="priority"/>
    <node id="1037390303" x="24090.48" y="1285.50" type="priority"/>
    <node id="1037435701" x="24567.07" y="689.13" type="priority"/>
    <node id="1037435782" x="24411.09" y="855.61" type="priority"/>
    <node id="1038105379" x="17439.97" y="14009.94" type="priority"/>
    <node id="1038173881" x="9614.78" y="5546.19" type="priority"/>
    <node id="1039303150" x="24004.87" y="31526.89" type="priority"/>
    <node id="1039303233" x="24679.20" y="31298.00" type="priority"/>
    <node id="1039303247" x="24527.75" y="31244.94" type="priority"/>
    <node id="1039303262" x="24481.61" y="31302.60" type="right_before_left"/>
    <node id="1039303267" x="24462.82" y="31301.29" type="priority"/>
    <node id="1039303276" x="24695.12" y="31370.42" type="priority"/>
    <node id="1039303287" x="24042.58" y="31330.19" type="priority"/>
    <node id="1039303292" x="24768.86" y="31406.99" type="priority"/>
    <node id="1039303294" x="24530.87" y="32069.44" type="priority"/>
    <node id="1039303305" x="24545.78" y="31594.75" type="priority"/>
    <node id="1039303318" x="24548.27" y="31269.84" type="priority"/>
    <node id="1039303324" x="24464.58" y="31339.41" type="right_before_left"/>
    <node id="1039560942" x="14185.77" y="13689.70" type="priority"/>
    <node id="104044762" x="17650.03" y="16007.53" type="priority"/>
    <node id="104044765" x="17790.44" y="16159.65" type="priority"/>
    <node id="104052064" x="17622.58" y="16138.71" type="priority"/>
    <node id="104255852" x="12065.24" y="16595.17" type="traffic_light" tl="104255852"/>
    <node id="1043093545" x="25999.23" y="19508.72" type="priority"/>
    <node id="1043712829" x="7494.48" y="26016.33" type="priority"/>
    <node id="1048514976" x="16947.51" y="28025.62" type="priority"/>
    <node id="1048514979" x="16941.06" y="28006.42" type="priority"/>
    <node id="1049747685" x="5739.60" y="8289.96" type="priority"/>
    <node id="1049963774" x="15710.81" y="27155.77" type="priority"/>
    <node id="1052952354" x="15702.17" y="25431.05" type="priority"/>
    <node id="105415960" x="9382.15" y="23706.72" type="priority"/>
    <node id="105415982" x="9323.69" y="24022.85" type="priority"/>
    <node id="1055172430" x="15765.95" y="25408.56" type="priority"/>
    <node id="1055178067" x="15667.77" y="25483.16" type="priority"/>
    <node id="1055231156" x="16186.96" y="25284.98" type="priority"/>
    <node id="1055344643" x="14533.69" y="27508.03" type="priority"/>
    <node id="1056945607" x="12251.15" y="12269.67" type="priority"/>
    <node id="1057725055" x="16312.08" y="25259.88" type="priority"/>
    <node id="1057741198" x="16271.62" y="25263.51" type="priority"/>
    <node id="1060038002" x="17454.88" y="2316.59" type="priority"/>
    <node id="1060038079" x="17575.83" y="2302.70" type="right_before_left"/>
    <node id="1063799111" x="26924.54" y="17283.36" type="priority"/>
    <node id="1063965797" x="13032.85" y="17576.42" type="priority"/>
    <node id="1064467542" x="5657.91" y="31116.63" type="priority"/>
    <node id="1069892408" x="15648.06" y="25463.33" type="traffic_light" tl="1069892408"/>
    <node id="1069892426" x="15640.89" y="25433.49" type="priority"/>
    <node id="1069899933" x="14927.21" y="26558.37" type="priority"/>
    <node id="1069912857" x="15609.25" y="25346.86" type="priority"/>
    <node id="1072588621" x="26761.93" y="1103.48" type="priority"/>
    <node id="1072774794" x="30556.67" y="30441.42" type="priority"/>
    <node id="1077106049" x="25841.71" y="741.04" type="right_before_left"/>
    <node id="1077106112" x="25902.86" y="824.80" type="priority"/>
    <node id="1077106209" x="25826.59" y="711.86" type="priority"/>
    <node id="1077347793" x="10871.10" y="17198.63" type="priority"/>
    <node id="1077585059" x="4104.10" y="13650.36" type="priority"/>
    <node id="1077585127" x="4117.41" y="13702.82" type="priority"/>
    <node id="1077615804" x="6110.58" y="12754.99" type="priority"/>
    <node id="1077634769" x="6753.25" y="18862.92" type="priority"/>
    <node id="1077634801" x="6744.83" y="18710.13" type="priority"/>
    <node id="1078555518" x="9010.92" y="20509.63" type="priority"/>
    <node id="1078684116" x="10903.98" y="17164.84" type="traffic_light" tl="1078684116"/>
    <node id="1078684132" x="10894.87" y="17145.52" type="traffic_light" tl="GS_1078684132"/>
    <node id="1080427397" x="21597.03" y="27114.60" type="priority"/>
    <node id="1080427616" x="21712.02" y="26344.50" type="priority"/>
    <node id="1080990202" x="15620.08" y="25330.69" type="priority"/>
    <node id="1083454204" x="18682.95" y="26992.73" type="priority"/>
    <node id="1083593125" x="25398.79" y="1151.53" type="priority"/>
    <node id="1083723829" x="26382.63" y="1234.56" type="priority"/>
    <node id="1084362401" x="6901.72" y="8199.27" type="right_before_left"/>
    <node id="1084362427" x="6798.56" y="8201.77" type="right_before_left"/>
    <node id="1084362433" x="6844.81" y="8192.33" type="right_before_left"/>
    <node id="1085339844" x="24802.99" y="19245.15" type="priority"/>
    <node id="1085339847" x="24765.60" y="19276.21" type="right_before_left"/>
    <node id="10853912" x="12386.77" y="14037.81" type="priority"/>
    <node id="10853913" x="12577.57" y="14026.27" type="right_before_left"/>
    <node id="1085401691" x="23995.77" y="17697.74" type="priority"/>
    <node id="10854208" x="12391.22" y="14116.09" type="priority"/>
    <node id="10854209" x="12422.05" y="14145.37" type="priority"/>
    <node id="1088077963" x="26165.36" y="1519.57" type="priority"/>
    <node id="1088789594" x="26095.85" y="1570.41" type="priority"/>
    <node id="1090862455" x="25862.32" y="1689.09" type="priority"/>
    <node id="1090900573" x="26018.32" y="1608.02" type="priority"/>
    <node id="1091618518" x="26026.45" y="1623.36" type="priority"/>
    <node id="1091618529" x="25947.16" y="1657.35" type="priority"/>
    <node id="1091618555" x="25937.06" y="1641.56" type="priority"/>
    <node id="1091670526" x="20885.64" y="17473.67" type="priority"/>
    <node id="10924332" x="12592.56" y="14127.69" type="priority"/>
    <node id="10929961" x="12528.47" y="14510.88" type="traffic_light" tl="10929961"/>
    <node id="1093872774" x="13449.45" y="13243.18" type="priority"/>
    <node id="1093872785" x="13297.04" y="13294.24" type="right_before_left"/>
    <node id="1093872872" x="12875.36" y="13058.60" type="priority"/>
    <node id="1094495598" x="27276.83" y="801.39" type="priority"/>
    <node id="1094542621" x="25856.52" y="1456.98" type="priority"/>
    <node id="1094542789" x="25855.07" y="1473.16" type="priority"/>
    <node id="1094612803" x="25922.08" y="1447.58" type="priority"/>
    <node id="1094613095" x="25922.92" y="1432.28" type="priority"/>
    <node id="1096126469" x="25857.86" y="1381.35" type="priority"/>
    <node id="1096126688" x="25789.88" y="1407.01" type="priority"/>
    <node id="1096131762" x="25866.12" y="1400.36" type="priority"/>
    <node id="1096408609" x="20771.00" y="27816.17" type="priority"/>
    <node id="1096542942" x="16797.10" y="15207.78" type="priority"/>
    <node id="1098303967" x="17164.95" y="14216.79" type="priority"/>
    <node id="1098597009" x="4883.09" y="14621.93" type="priority"/>
    <node id="1098597023" x="4820.59" y="14712.73" type="priority"/>
    <node id="1098603768" x="4541.53" y="14660.01" type="priority"/>
    <node id="1098649286" x="5120.60" y="14171.16" type="priority"/>
    <node id="1098658322" x="5253.05" y="14112.88" type="priority"/>
    <node id="1098658324" x="5148.24" y="14122.80" type="priority"/>
    <node id="10989051" x="12712.39" y="14081.06" type="traffic_light" tl="GS_10989051"/>
    <node id="10989096" x="12583.93" y="13943.12" type="right_before_left"/>
    <node id="10990037" x="12646.75" y="14023.75" type="priority"/>
    <node id="1100103496" x="12872.14" y="19972.17" type="priority"/>
    <node id="1103962641" x="17541.78" y="25536.24" type="priority"/>
    <node id="1103962903" x="17844.35" y="26072.58" type="priority"/>
    <node id="1104339737" x="25842.12" y="1162.00" type="priority"/>
    <node id="1104339743" x="25854.87" y="1218.81" type="priority"/>
    <node id="1104339841" x="25852.57" y="1151.81" type="right_before_left"/>
    <node id="1104339880" x="25847.89" y="1141.13" type="priority"/>
    <node id="1106644029" x="19473.07" y="33261.78" type="priority"/>
    <node id="1106644099" x="19455.44" y="33341.93" type="priority"/>
    <node id="1108828506" x="25443.65" y="1283.20" type="priority"/>
    <node id="1110515771" x="25595.02" y="1520.81" type="priority"/>
    <node id="1110548471" x="25660.33" y="1489.34" type="priority"/>
    <node id="1111365768" x="25486.64" y="1647.94" type="priority"/>
    <node id="1111394366" x="25509.00" y="1708.74" type="priority"/>
    <node id="1111690160" x="25533.55" y="1772.45" type="priority"/>
    <node id="1111852812" x="25405.33" y="1931.42" type="right_before_left"/>
    <node id="1113241657" x="26176.91" y="1539.41" type="priority"/>
    <node id="11133495" x="13301.11" y="12927.81" type="priority"/>
    <node id="1116274682" x="14930.48" y="11324.57" type="priority"/>
    <node id="1116274686" x="14889.24" y="11335.87" type="priority"/>
    <node id="1117370319" x="20530.97" y="32004.49" type="priority"/>
    <node id="112113742" x="12647.24" y="30342.67" type="priority"/>
    <node id="112113814" x="13964.47" y="31302.37" type="traffic_light" tl="112113814"/>
    <node id="1121699209" x="25314.13" y="1382.57" type="priority"/>
    <node id="1124999937" x="3085.39" y="12586.70" type="priority"/>
    <node id="1124999946" x="3074.37" y="12592.76" type="priority"/>
    <node id="1124999971" x="3081.59" y="12571.46" type="priority"/>
    <node id="1124999976" x="3063.78" y="12578.50" type="priority"/>
    <node id="1127902334" x="17744.60" y="28258.02" type="priority"/>
    <node id="1127945494" x="17401.79" y="28628.10" type="priority"/>
    <node id="1128156295" x="25085.55" y="1075.07" type="right_before_left"/>
    <node id="1129318506" x="14954.85" y="5249.95" type="priority"/>
    <node id="1129335648" x="14786.10" y="4930.52" type="priority"/>
    <node id="1129796172" x="3903.23" y="10011.55" type="priority"/>
    <node id="1129796184" x="3962.36" y="10007.00" type="priority"/>
    <node id="1129820635" x="3773.74" y="10071.71" type="priority"/>
    <node id="1129820639" x="3822.70" y="10083.77" type="priority"/>
    <node id="1129820647" x="3770.17" y="10135.76" type="priority"/>
    <node id="1129820649" x="3755.50" y="10087.71" type="priority"/>
    <node id="1129820652" x="3737.86" y="10103.18" type="priority"/>
    <node id="1129820665" x="3897.70" y="10174.57" type="priority"/>
    <node id="1132448191" x="25121.62" y="1108.72" type="priority"/>
    <node id="1132481481" x="25316.61" y="1193.06" type="priority"/>
    <node id="1132693171" x="17099.13" y="10884.77" type="priority"/>
    <node id="1133702300" x="13983.61" y="1313.61" type="priority"/>
    <node id="113383497" x="29738.94" y="17233.09" type="right_before_left"/>
    <node id="113383508" x="29613.04" y="17171.14" type="priority"/>
    <node id="1133868634" x="17937.00" y="32195.47" type="priority"/>
    <node id="1133941727" x="25004.98" y="1307.07" type="priority"/>
    <node id="1133941746" x="25039.40" y="1269.13" type="right_before_left"/>
    <node id="1134105769" x="15379.96" y="1341.01" type="priority"/>
    <node id="1134403736" x="14730.33" y="25278.93" type="priority"/>
    <node id="1134419305" x="22372.45" y="22076.59" type="priority"/>
    <node id="1134419346" x="23190.85" y="21733.26" type="priority"/>
    <node id="1137677521" x="26735.69" y="16881.04" type="priority"/>
    <node id="1137708075" x="5695.70" y="32566.97" type="priority"/>
    <node id="1137708388" x="5674.83" y="32641.01" type="priority"/>
    <node id="1137708576" x="5698.55" y="32588.95" type="priority"/>
    <node id="1137729966" x="5781.51" y="32265.63" type="priority"/>
    <node id="1138171506" x="14260.31" y="12127.69" type="priority"/>
    <node id="1138171514" x="14254.13" y="12140.49" type="priority"/>
    <node id="1138218052" x="13810.51" y="11729.31" type="priority"/>
    <node id="1138226555" x="14121.30" y="11979.80" type="priority"/>
    <node id="1138226558" x="14104.27" y="11987.02" type="priority"/>
    <node id="1138934588" x="6426.04" y="31882.99" type="priority"/>
    <node id="1138934936" x="6271.42" y="31890.31" type="priority"/>
    <node id="1139298617" x="11464.54" y="22838.97" type="priority"/>
    <node id="1139712195" x="13182.17" y="17479.34" type="priority"/>
    <node id="1139718890" x="14604.92" y="11900.22" type="priority"/>
    <node id="1139718892" x="14615.63" y="11902.47" type="priority"/>
    <node id="1139849325" x="14527.09" y="10108.54" type="priority"/>
    <node id="1139849331" x="14534.02" y="10120.36" type="priority"/>
    <node id="1141807880" x="6988.45" y="6800.30" type="priority"/>
    <node id="1142037884" x="12904.41" y="13853.46" type="traffic_light" tl="GS_1142037884"/>
    <node id="1142900776" x="9363.98" y="19345.86" type="priority"/>
    <node id="1144481246" x="29160.54" y="32494.98" type="priority"/>
    <node id="1144481272" x="29276.44" y="32553.69" type="priority"/>
    <node id="1144553319" x="4344.46" y="9481.22" type="priority"/>
    <node id="1144553378" x="4132.10" y="9462.02" type="priority"/>
    <node id="1144632242" x="29399.39" y="32468.62" type="priority"/>
    <node id="1144632488" x="29135.70" y="32567.80" type="priority"/>
    <node id="1145709338" x="3132.99" y="10200.97" type="priority"/>
    <node id="1145709343" x="3391.79" y="10341.93" type="priority"/>
    <node id="1145709375" x="3412.34" y="10317.60" type="priority"/>
    <node id="1145709378" x="3214.06" y="10141.19" type="priority"/>
    <node id="1145709384" x="3241.03" y="10213.56" type="priority"/>
    <node id="1145709416" x="3299.20" y="10280.93" type="priority"/>
    <node id="1146944330" x="13583.91" y="15254.70" type="priority"/>
    <node id="1149271782" x="17884.26" y="32942.84" type="priority"/>
    <node id="1149614134" x="28569.79" y="16098.99" type="priority"/>
    <node id="1149614140" x="28539.77" y="16104.63" type="priority"/>
    <node id="1149614155" x="28243.15" y="16369.62" type="right_before_left"/>
    <node id="1149614168" x="28537.27" y="16167.88" type="priority"/>
    <node id="1149614180" x="28255.08" y="16380.90" type="priority"/>
    <node id="1149614187" x="28597.34" y="16123.49" type="priority"/>
    <node id="1149614188" x="28557.40" y="16225.09" type="priority"/>
    <node id="1149614195" x="28539.02" y="16135.04" type="priority"/>
    <node id="1149614197" x="28598.07" y="16101.24" type="priority"/>
    <node id="1149614201" x="28422.53" y="16550.04" type="priority"/>
    <node id="1151715053" x="27563.37" y="17343.41" type="priority"/>
    <node id="115810249" x="29507.30" y="16716.72" type="priority"/>
    <node id="1158684971" x="14453.55" y="11656.57" type="priority"/>
    <node id="1158684974" x="14482.13" y="11609.80" type="priority"/>
    <node id="1158710387" x="21663.90" y="18151.78" type="priority"/>
    <node id="116055816" x="26013.58" y="1482.99" type="traffic_light" tl="GS_116055816"/>
    <node id="116057385" x="25858.04" y="1675.94" type="priority"/>
    <node id="116057386" x="25827.46" y="1583.63" type="right_before_left"/>
    <node id="116057389" x="25671.21" y="1348.34" type="right_before_left"/>
    <node id="116057391" x="25616.78" y="1270.57" type="right_before_left"/>
    <node id="116057955" x="26037.81" y="1461.58" type="right_before_left"/>
    <node id="116058474" x="25880.46" y="1294.09" type="right_before_left"/>
    <node id="116058752" x="25834.10" y="1311.63" type="right_before_left"/>
    <node id="116059375" x="25765.01" y="1325.62" type="right_before_left"/>
    <node id="116060331" x="26282.20" y="1229.65" type="right_before_left"/>
    <node id="116060333" x="26256.90" y="1229.52" type="right_before_left"/>
    <node id="116060335" x="26172.07" y="1226.83" type="right_before_left"/>
    <node id="116060338" x="26072.43" y="1215.63" type="right_before_left"/>
    <node id="116060339" x="26015.03" y="1176.63" type="right_before_left"/>
    <node id="116060340" x="25979.80" y="1152.02" type="right_before_left"/>
    <node id="116060343" x="25845.32" y="1056.23" type="right_before_left"/>
    <node id="116060651" x="26149.12" y="1381.76" type="right_before_left"/>
    <node id="116062858" x="26076.95" y="1060.58" type="right_before_left"/>
    <node id="116063785" x="26007.14" y="970.34" type="right_before_left"/>
    <node id="116063791" x="26139.78" y="1015.93" type="right_before_left"/>
    <node id="116064612" x="25939.25" y="878.55" type="priority"/>
    <node id="116065316" x="25757.41" y="1169.41" type="right_before_left"/>
    <node id="116065317" x="25520.27" y="1333.93" type="right_before_left"/>
    <node id="116065320" x="25421.36" y="1407.87" type="right_before_left"/>
    <node id="116065323" x="25280.01" y="1516.70" type="right_before_left"/>
    <node id="116065326" x="25232.04" y="1569.14" type="right_before_left"/>
    <node id="116066063" x="25513.14" y="1537.06" type="right_before_left"/>
    <node id="116066067" x="25340.05" y="1670.53" type="right_before_left"/>
    <node id="116066071" x="25259.64" y="1759.43" type="right_before_left"/>
    <node id="116066334" x="25100.05" y="1445.36" type="traffic_light" tl="116066334"/>
    <node id="116066493" x="25166.88" y="1398.30" type="traffic_light" tl="116066493"/>
    <node id="116066544" x="25228.97" y="1458.11" type="priority"/>
    <node id="116066727" x="25308.30" y="1395.82" type="right_before_left"/>
    <node id="116066994" x="25330.06" y="1278.67" type="traffic_light" tl="116066994"/>
    <node id="116067621" x="25578.09" y="1622.13" type="right_before_left"/>
    <node id="116067626" x="25618.20" y="1686.51" type="right_before_left"/>
    <node id="116067629" x="25644.99" y="1755.33" type="right_before_left"/>
    <node id="116067634" x="25555.46" y="1770.82" type="priority"/>
    <node id="116067817" x="25531.12" y="1710.67" type="priority"/>
    <node id="116068206" x="25508.31" y="1649.86" type="priority"/>
    <node id="116068297" x="25556.56" y="1481.01" type="right_before_left"/>
    <node id="116068646" x="25605.24" y="1534.16" type="priority"/>
    <node id="116068937" x="25670.66" y="1507.07" type="priority"/>
    <node id="116070597" x="25661.60" y="1040.13" type="priority"/>
    <node id="116071524" x="25419.48" y="2043.12" type="priority"/>
    <node id="116071527" x="25365.30" y="1939.18" type="priority"/>
    <node id="116071528" x="25338.43" y="1840.60" type="right_before_left"/>
    <node id="116071533" x="25223.41" y="1725.28" type="right_before_left"/>
    <node id="116071534" x="25145.04" y="1648.74" type="right_before_left"/>
    <node id="116071536" x="25008.23" y="1537.81" type="traffic_light" tl="116071536"/>
    <node id="116072176" x="25058.28" y="1871.62" type="right_before_left"/>
    <node id="116072177" x="24894.19" y="1887.05" type="right_before_left"/>
    <node id="116072482" x="25036.38" y="1811.53" type="right_before_left"/>
    <node id="116072483" x="24964.17" y="1719.25" type="priority"/>
    <node id="116072800" x="25173.94" y="1679.78" type="right_before_left"/>
    <node id="116073480" x="24991.69" y="1877.41" type="priority"/>
    <node id="116073841" x="24996.81" y="2038.30" type="right_before_left"/>
    <node id="116073843" x="24819.42" y="2160.84" type="right_before_left"/>
    <node id="116074555" x="25034.54" y="2286.92" type="right_before_left"/>
    <node id="116074556" x="24774.08" y="2136.10" type="traffic_light" tl="GS_116074556"/>
    <node id="116074557" x="24726.07" y="2109.82" type="priority"/>
    <node id="116074560" x="24593.78" y="1976.21" type="right_before_left"/>
    <node id="116074561" x="24572.51" y="1915.43" type="priority"/>
    <node id="116075283" x="24568.33" y="2196.32" type="right_before_left"/>
    <node id="116075284" x="24807.34" y="1951.63" type="right_before_left"/>
    <node id="116075734" x="25025.35" y="2079.90" type="right_before_left"/>
    <node id="116075737" x="25064.52" y="2137.53" type="right_before_left"/>
    <node id="116075738" x="25088.54" y="2220.84" type="right_before_left"/>
    <node id="116076231" x="24803.59" y="2332.29" type="priority"/>
    <node id="116076232" x="24885.27" y="2386.03" type="priority"/>
    <node id="116076768" x="24437.12" y="2121.50" type="right_before_left"/>
    <node id="1161073509" x="13777.14" y="11050.29" type="priority"/>
    <node id="1161580096" x="20447.54" y="20502.64" type="priority"/>
    <node id="1163137979" x="26394.04" y="19472.72" type="priority"/>
    <node id="1168822385" x="14943.62" y="18097.97" type="priority"/>
    <node id="117141997" x="30923.78" y="31008.66" type="priority"/>
    <node id="117141999" x="30975.74" y="31027.95" type="priority"/>
    <node id="117142011" x="31184.79" y="31080.58" type="priority"/>
    <node id="117142017" x="31263.08" y="31072.31" type="priority"/>
    <node id="117142032" x="31355.32" y="31161.93" type="priority"/>
    <node id="117144023" x="30993.71" y="30890.25" type="priority"/>
    <node id="117144030" x="30946.71" y="30880.36" type="priority"/>
    <node id="117145435" x="30973.75" y="30742.42" type="priority"/>
    <node id="117145439" x="30927.22" y="30625.25" type="right_before_left"/>
    <node id="117145447" x="30974.70" y="30468.59" type="right_before_left"/>
    <node id="117147655" x="31232.10" y="30976.50" type="right_before_left"/>
    <node id="117147668" x="31109.06" y="30730.94" type="priority"/>
    <node id="117147670" x="31071.63" y="30680.09" type="priority"/>
    <node id="117147673" x="31030.98" y="30582.66" type="priority"/>
    <node id="117147674" x="31013.13" y="30543.65" type="right_before_left"/>
    <node id="117147685" x="30766.25" y="30428.75" type="priority"/>
    <node id="117150052" x="30722.70" y="30637.49" type="priority"/>
    <node id="117150055" x="30734.26" y="30557.70" type="priority"/>
    <node id="1173070863" x="4719.43" y="32342.79" type="priority"/>
    <node id="1175837702" x="24383.12" y="30764.50" type="priority"/>
    <node id="1175837915" x="24443.41" y="30718.16" type="priority"/>
    <node id="1175971167" x="30191.60" y="31091.44" type="right_before_left"/>
    <node id="1175971223" x="30178.64" y="31071.82" type="right_before_left"/>
    <node id="1175971224" x="26803.34" y="31430.94" type="priority"/>
    <node id="1175971230" x="25979.27" y="32128.88" type="priority"/>
    <node id="1175971244" x="30246.35" y="31093.68" type="priority"/>
    <node id="1175971312" x="26029.63" y="32069.46" type="priority"/>
    <node id="1175971378" x="30230.83" y="31112.28" type="right_before_left"/>
    <node id="1175971383" x="25997.17" y="32110.58" type="priority"/>
    <node id="1175971416" x="25858.88" y="31923.95" type="priority"/>
    <node id="1175971419" x="25915.18" y="32097.53" type="priority"/>
    <node id="1175971509" x="30249.88" y="31122.44" type="priority"/>
    <node id="1176051288" x="24249.82" y="30491.97" type="priority"/>
    <node id="1176051361" x="24098.63" y="30570.62" type="priority"/>
    <node id="11768644" x="26755.59" y="30202.96" type="priority"/>
    <node id="1177444060" x="23248.93" y="30553.90" type="priority"/>
    <node id="1177444135" x="23342.48" y="30677.95" type="priority"/>
    <node id="1177444162" x="23202.94" y="30525.82" type="priority"/>
    <node id="1177444176" x="24477.54" y="30655.84" type="priority"/>
    <node id="1177444217" x="24345.97" y="30663.02" type="priority"/>
    <node id="1177444229" x="23390.82" y="30778.85" type="priority"/>
    <node id="1177444391" x="24421.01" y="30651.05" type="priority"/>
    <node id="1177444490" x="24436.10" y="30688.63" type="priority"/>
    <node id="1177444494" x="24518.07" y="30701.59" type="priority"/>
    <node id="1177457638" x="23491.75" y="30707.42" type="priority"/>
    <node id="1177475068" x="23954.22" y="31329.43" type="priority"/>
    <node id="1177475076" x="24073.65" y="31434.93" type="priority"/>
    <node id="1177529335" x="26293.54" y="30482.53" type="priority"/>
    <node id="1177529352" x="26479.74" y="30534.63" type="priority"/>
    <node id="1177529415" x="26418.74" y="30570.53" type="priority"/>
    <node id="1177529428" x="26454.68" y="30467.54" type="priority"/>
    <node id="1177529490" x="25266.96" y="30679.69" type="priority"/>
    <node id="1177529506" x="25304.66" y="30675.59" type="priority"/>
    <node id="1177529521" x="26381.22" y="30451.22" type="priority"/>
    <node id="1177529524" x="26204.00" y="30579.30" type="priority"/>
    <node id="1180942822" x="19055.91" y="28393.10" type="priority"/>
    <node id="1180942865" x="19041.69" y="28395.73" type="priority"/>
    <node id="1180942866" x="19056.43" y="28412.60" type="priority"/>
    <node id="1182988039" x="25037.73" y="1645.98" type="priority"/>
    <node id="1185826065" x="19435.32" y="28953.89" type="priority"/>
    <node id="1185826351" x="19538.90" y="29078.31" type="priority"/>
    <node id="1187456949" x="4130.52" y="21951.97" type="priority"/>
    <node id="1189379140" x="20536.00" y="17206.21" type="priority"/>
    <node id="1189379142" x="20530.49" y="17148.65" type="priority"/>
    <node id="1189464583" x="24450.51" y="2007.51" type="priority"/>
    <node id="1190741548" x="18816.57" y="29801.32" type="priority"/>
    <node id="1190760485" x="18760.28" y="30006.72" type="priority"/>
    <node id="1192694906" x="4420.23" y="21986.80" type="priority"/>
    <node id="1192694912" x="4342.30" y="22091.06" type="priority"/>